<?xml version="1.0" encoding="UTF-8"?>

<!-- generated on 2025-03-06 07:22:21.567045 by osmWebWizard.py v1_22_0+0002-63e50f52594
<configuration>
    <net-file value="C:\Users\evans\Sumo\2025-03-06-07-22-14\osm.net.xml.gz"/>
    <output-trip-file value="C:\Users\evans\Sumo\2025-03-06-07-22-14\osm.pedestrian.trips.xml"/>
    <route-file value="C:\Users\evans\Sumo\2025-03-06-07-22-14\osm.pedestrian.rou.xml"/>
    <pedestrians value="True"/>
    <prefix value="ped"/>
    <vehicle-class value="pedestrian"/>
    <fringe-factor value="1"/>
    <max-distance value="2000.0"/>
    <end value="86400.0"/>
    <insertion-density value="10.0"/>
</configuration>
-->

<routes xmlns:xsi="http://www.w3.org/2001/XMLSchema-instance" xsi:noNamespaceSchemaLocation="http://sumo.dlr.de/xsd/routes_file.xsd">
    <vType id="ped_pedestrian" vClass="pedestrian"/>
    <person id="ped0" depart="0.00" type="ped_pedestrian">
        <walk from="225485339#1" to="-183191792#0"/>
    </person>
    <person id="ped1" depart="11.75" type="ped_pedestrian">
        <walk from="1134398600#2" to="-585994313"/>
    </person>
    <person id="ped2" depart="23.50" type="ped_pedestrian">
        <walk from="335765996" to="225486056"/>
    </person>
    <person id="ped3" depart="35.25" type="ped_pedestrian">
        <walk from="563602647" to="-415361890#0"/>
    </person>
    <person id="ped4" depart="46.99" type="ped_pedestrian">
        <walk from="225466107#2" to="-183191792#5"/>
    </person>
    <person id="ped5" depart="58.74" type="ped_pedestrian">
        <walk from="-563620298" to="225470234#1"/>
    </person>
    <person id="ped6" depart="70.49" type="ped_pedestrian">
        <walk from="-183191792#2" to="-563620260"/>
    </person>
    <person id="ped7" depart="82.24" type="ped_pedestrian">
        <walk from="225485347#1" to="225470252#1"/>
    </person>
    <person id="ped8" depart="93.99" type="ped_pedestrian">
        <walk from="-563620309" to="225473205"/>
    </person>
    <person id="ped9" depart="105.74" type="ped_pedestrian">
        <walk from="543914346#3" to="-1085025207"/>
    </person>
    <person id="ped10" depart="117.48" type="ped_pedestrian">
        <walk from="543914344#1" to="225571730"/>
    </person>
    <person id="ped11" depart="129.23" type="ped_pedestrian">
        <walk from="225446891#0" to="-563602528#0"/>
    </person>
    <person id="ped12" depart="140.98" type="ped_pedestrian">
        <walk from="585995063#5" to="183191792#4"/>
    </person>
    <person id="ped13" depart="152.73" type="ped_pedestrian">
        <walk from="-440267648#0" to="-543914343#0"/>
    </person>
    <person id="ped14" depart="164.48" type="ped_pedestrian">
        <walk from="563602500" to="225476492#2"/>
    </person>
    <person id="ped15" depart="176.23" type="ped_pedestrian">
        <walk from="543914346#1" to="335765986#8"/>
    </person>
    <person id="ped16" depart="187.97" type="ped_pedestrian">
        <walk from="225470245#1" to="778437842#2"/>
    </person>
    <person id="ped17" depart="199.72" type="ped_pedestrian">
        <walk from="225466088" to="225470255"/>
    </person>
    <person id="ped18" depart="211.47" type="ped_pedestrian">
        <walk from="561883409#4" to="225485325#1"/>
    </person>
    <person id="ped19" depart="223.22" type="ped_pedestrian">
        <walk from="563602528#0" to="225470274#3"/>
    </person>
    <person id="ped20" depart="234.97" type="ped_pedestrian">
        <walk from="258842238#1" to="-258844485"/>
    </person>
    <person id="ped21" depart="246.72" type="ped_pedestrian">
        <walk from="-586080836#1" to="1134398608#0"/>
    </person>
    <person id="ped22" depart="258.46" type="ped_pedestrian">
        <walk from="-415361884" to="-837196485#1"/>
    </person>
    <person id="ped23" depart="270.21" type="ped_pedestrian">
        <walk from="-543914345" to="1134398600#4"/>
    </person>
    <person id="ped24" depart="281.96" type="ped_pedestrian">
        <walk from="225485336#4" to="225466080#0"/>
    </person>
    <person id="ped25" depart="293.71" type="ped_pedestrian">
        <walk from="225466081#2" to="-563620280"/>
    </person>
    <person id="ped26" depart="305.46" type="ped_pedestrian">
        <walk from="1134398595#1" to="563620287#1"/>
    </person>
    <person id="ped27" depart="317.21" type="ped_pedestrian">
        <walk from="225485346#2" to="225476496#0"/>
    </person>
    <person id="ped28" depart="328.95" type="ped_pedestrian">
        <walk from="-563602644" to="335765986#6"/>
    </person>
    <person id="ped29" depart="340.70" type="ped_pedestrian">
        <walk from="-563602567" to="225466089"/>
    </person>
    <person id="ped30" depart="352.45" type="ped_pedestrian">
        <walk from="837196486" to="225485339#1"/>
    </person>
    <person id="ped31" depart="364.20" type="ped_pedestrian">
        <walk from="225470262#0" to="225571223"/>
    </person>
    <person id="ped32" depart="375.95" type="ped_pedestrian">
        <walk from="563602486" to="415361884"/>
    </person>
    <person id="ped33" depart="387.70" type="ped_pedestrian">
        <walk from="-737722158" to="-225470252#3"/>
    </person>
    <person id="ped34" depart="399.44" type="ped_pedestrian">
        <walk from="180244656#0" to="1134398596#0"/>
    </person>
    <person id="ped35" depart="411.19" type="ped_pedestrian">
        <walk from="-563620281#1" to="563620309"/>
    </person>
    <person id="ped36" depart="422.94" type="ped_pedestrian">
        <walk from="563602572#1" to="180244650#1"/>
    </person>
    <person id="ped37" depart="434.69" type="ped_pedestrian">
        <walk from="225485350#2" to="225466097#3"/>
    </person>
    <person id="ped38" depart="446.44" type="ped_pedestrian">
        <walk from="563616188#2" to="225466123#0"/>
    </person>
    <person id="ped39" depart="458.19" type="ped_pedestrian">
        <walk from="1085025207" to="1046388838#1"/>
    </person>
    <person id="ped40" depart="469.93" type="ped_pedestrian">
        <walk from="225470262#4" to="1050574279#5"/>
    </person>
    <person id="ped41" depart="481.68" type="ped_pedestrian">
        <walk from="225470358#3" to="563602653#0"/>
    </person>
    <person id="ped42" depart="493.43" type="ped_pedestrian">
        <walk from="225466098#1" to="-563620305"/>
    </person>
    <person id="ped43" depart="505.18" type="ped_pedestrian">
        <walk from="920874877#3" to="225470236#1"/>
    </person>
    <person id="ped44" depart="516.93" type="ped_pedestrian">
        <walk from="-440267646" to="-276157215#0"/>
    </person>
    <person id="ped45" depart="528.68" type="ped_pedestrian">
        <walk from="-543921248#2" to="225485331#1"/>
    </person>
    <person id="ped46" depart="540.42" type="ped_pedestrian">
        <walk from="440267648#2" to="225466107#2"/>
    </person>
    <person id="ped47" depart="552.17" type="ped_pedestrian">
        <walk from="-335765986#5" to="225466090#1"/>
    </person>
    <person id="ped48" depart="563.92" type="ped_pedestrian">
        <walk from="920874877#2" to="225470243#2"/>
    </person>
    <person id="ped49" depart="575.67" type="ped_pedestrian">
        <walk from="778437842#0" to="563602526#1"/>
    </person>
    <person id="ped50" depart="587.42" type="ped_pedestrian">
        <walk from="-1363617806" to="335765983#1"/>
    </person>
    <person id="ped51" depart="599.17" type="ped_pedestrian">
        <walk from="225486065#1" to="225470245#1"/>
    </person>
    <person id="ped52" depart="610.91" type="ped_pedestrian">
        <walk from="1134398595#1" to="225485340#0"/>
    </person>
    <person id="ped53" depart="622.66" type="ped_pedestrian">
        <walk from="-561883400" to="225466111#3"/>
    </person>
    <person id="ped54" depart="634.41" type="ped_pedestrian">
        <walk from="225466120#0" to="585995063#1"/>
    </person>
    <person id="ped55" depart="646.16" type="ped_pedestrian">
        <walk from="563602571" to="1050574279#6"/>
    </person>
    <person id="ped56" depart="657.91" type="ped_pedestrian">
        <walk from="225466137#5" to="-563602654"/>
    </person>
    <person id="ped57" depart="669.66" type="ped_pedestrian">
        <walk from="563616187#2" to="563602548"/>
    </person>
    <person id="ped58" depart="681.40" type="ped_pedestrian">
        <walk from="1363617806" to="225485339#0"/>
    </person>
    <person id="ped59" depart="693.15" type="ped_pedestrian">
        <walk from="225476496#0" to="-563602524"/>
    </person>
    <person id="ped60" depart="704.90" type="ped_pedestrian">
        <walk from="372715929" to="225470246#0"/>
    </person>
    <person id="ped61" depart="716.65" type="ped_pedestrian">
        <walk from="415361886#2" to="225470244#0"/>
    </person>
    <person id="ped62" depart="728.40" type="ped_pedestrian">
        <walk from="-1020412074" to="180244659#3"/>
    </person>
    <person id="ped63" depart="740.15" type="ped_pedestrian">
        <walk from="-180244632#2" to="563620278"/>
    </person>
    <person id="ped64" depart="751.89" type="ped_pedestrian">
        <walk from="563602575#0" to="561883409#6"/>
    </person>
    <person id="ped65" depart="763.64" type="ped_pedestrian">
        <walk from="180244632#2" to="-335765986#0"/>
    </person>
    <person id="ped66" depart="775.39" type="ped_pedestrian">
        <walk from="563602572#2" to="565245611#1"/>
    </person>
    <person id="ped67" depart="787.14" type="ped_pedestrian">
        <walk from="-415361889#0" to="225466132#0"/>
    </person>
    <person id="ped68" depart="798.89" type="ped_pedestrian">
        <walk from="-372396764#0" to="372707394"/>
    </person>
    <person id="ped69" depart="810.64" type="ped_pedestrian">
        <walk from="372725969" to="-563602462#0"/>
    </person>
    <person id="ped70" depart="822.38" type="ped_pedestrian">
        <walk from="225466125" to="225470252#6"/>
    </person>
    <person id="ped71" depart="834.13" type="ped_pedestrian">
        <walk from="1085025207" to="563602568#1"/>
    </person>
    <person id="ped72" depart="845.88" type="ped_pedestrian">
        <walk from="225466107#3" to="-563620281#1"/>
    </person>
    <person id="ped73" depart="857.63" type="ped_pedestrian">
        <walk from="225470245#3" to="335765986#8"/>
    </person>
    <person id="ped74" depart="869.38" type="ped_pedestrian">
        <walk from="-563620263#0" to="180244643#1"/>
    </person>
    <person id="ped75" depart="881.13" type="ped_pedestrian">
        <walk from="920874877#1" to="225485347#1"/>
    </person>
    <person id="ped76" depart="892.87" type="ped_pedestrian">
        <walk from="225466112#2" to="225470238"/>
    </person>
    <person id="ped77" depart="904.62" type="ped_pedestrian">
        <walk from="-561883409#1" to="-585997479"/>
    </person>
    <person id="ped78" depart="916.37" type="ped_pedestrian">
        <walk from="183191792#6" to="225470359#2"/>
    </person>
    <person id="ped79" depart="928.12" type="ped_pedestrian">
        <walk from="-837196483" to="-563620305"/>
    </person>
    <person id="ped80" depart="939.87" type="ped_pedestrian">
        <walk from="-372396764#4" to="225485335"/>
    </person>
    <person id="ped81" depart="951.62" type="ped_pedestrian">
        <walk from="-737722158" to="563602673"/>
    </person>
    <person id="ped82" depart="963.36" type="ped_pedestrian">
        <walk from="563602524" to="-372396764#4"/>
    </person>
    <person id="ped83" depart="975.11" type="ped_pedestrian">
        <walk from="-9122002" to="225485361#3"/>
    </person>
    <person id="ped84" depart="986.86" type="ped_pedestrian">
        <walk from="-563620287#0" to="-563602475#0"/>
    </person>
    <person id="ped85" depart="998.61" type="ped_pedestrian">
        <walk from="563620287#0" to="225470271#0"/>
    </person>
    <person id="ped86" depart="1010.36" type="ped_pedestrian">
        <walk from="225466124#8" to="415361890#1"/>
    </person>
    <person id="ped87" depart="1022.11" type="ped_pedestrian">
        <walk from="543914346#1" to="-563602683#0"/>
    </person>
    <person id="ped88" depart="1033.85" type="ped_pedestrian">
        <walk from="-543914343#0" to="225466110#4"/>
    </person>
    <person id="ped89" depart="1045.60" type="ped_pedestrian">
        <walk from="225466107#3" to="225466124#3"/>
    </person>
    <person id="ped90" depart="1057.35" type="ped_pedestrian">
        <walk from="335765986#6" to="225485362#1"/>
    </person>
    <person id="ped91" depart="1069.10" type="ped_pedestrian">
        <walk from="837196483" to="-543914343#1"/>
    </person>
    <person id="ped92" depart="1080.85" type="ped_pedestrian">
        <walk from="225466100#0" to="225446890"/>
    </person>
    <person id="ped93" depart="1092.60" type="ped_pedestrian">
        <walk from="563602528#0" to="1046388838#2"/>
    </person>
    <person id="ped94" depart="1104.34" type="ped_pedestrian">
        <walk from="-563602683#0" to="225466117#2"/>
    </person>
    <person id="ped95" depart="1116.09" type="ped_pedestrian">
        <walk from="225466107#2" to="1134398601#1"/>
    </person>
    <person id="ped96" depart="1127.84" type="ped_pedestrian">
        <walk from="1050574260#1" to="563620264"/>
    </person>
    <person id="ped97" depart="1139.59" type="ped_pedestrian">
        <walk from="225466115#2" to="563602526#1"/>
    </person>
    <person id="ped98" depart="1151.34" type="ped_pedestrian">
        <walk from="225470253#0" to="-276157215#4"/>
    </person>
    <person id="ped99" depart="1163.09" type="ped_pedestrian">
        <walk from="928756321" to="563602462#1"/>
    </person>
    <person id="ped100" depart="1174.83" type="ped_pedestrian">
        <walk from="586096395" to="563620270#1"/>
    </person>
    <person id="ped101" depart="1186.58" type="ped_pedestrian">
        <walk from="563602502" to="-563602576"/>
    </person>
    <person id="ped102" depart="1198.33" type="ped_pedestrian">
        <walk from="225466129#1" to="-563620286"/>
    </person>
    <person id="ped103" depart="1210.08" type="ped_pedestrian">
        <walk from="225466099#2" to="-335765986#0"/>
    </person>
    <person id="ped104" depart="1221.83" type="ped_pedestrian">
        <walk from="225466089" to="837196484"/>
    </person>
    <person id="ped105" depart="1233.58" type="ped_pedestrian">
        <walk from="1085025207" to="415361890#1"/>
    </person>
    <person id="ped106" depart="1245.32" type="ped_pedestrian">
        <walk from="225466120#1" to="225466107#3"/>
    </person>
    <person id="ped107" depart="1257.07" type="ped_pedestrian">
        <walk from="585995063#5" to="920874877#1"/>
    </person>
    <person id="ped108" depart="1268.82" type="ped_pedestrian">
        <walk from="225470258#1" to="276157217"/>
    </person>
    <person id="ped109" depart="1280.57" type="ped_pedestrian">
        <walk from="-563602526#1" to="1363617804"/>
    </person>
    <person id="ped110" depart="1292.32" type="ped_pedestrian">
        <walk from="586096395" to="225470276"/>
    </person>
    <person id="ped111" depart="1304.07" type="ped_pedestrian">
        <walk from="225470250#0" to="335766023#1"/>
    </person>
    <person id="ped112" depart="1315.81" type="ped_pedestrian">
        <walk from="-335765983#1" to="225470358#2"/>
    </person>
    <person id="ped113" depart="1327.56" type="ped_pedestrian">
        <walk from="225470233#1" to="563602507#1"/>
    </person>
    <person id="ped114" depart="1339.31" type="ped_pedestrian">
        <walk from="-563602533#0" to="585995064#1"/>
    </person>
    <person id="ped115" depart="1351.06" type="ped_pedestrian">
        <walk from="-415361884" to="-563602673"/>
    </person>
    <person id="ped116" depart="1362.81" type="ped_pedestrian">
        <walk from="225473223" to="225486055"/>
    </person>
    <person id="ped117" depart="1374.56" type="ped_pedestrian">
        <walk from="-837196490" to="-561883409#0"/>
    </person>
    <person id="ped118" depart="1386.30" type="ped_pedestrian">
        <walk from="563602645#1" to="1046388838#0"/>
    </person>
    <person id="ped119" depart="1398.05" type="ped_pedestrian">
        <walk from="225473218#2" to="225485325#2"/>
    </person>
    <person id="ped120" depart="1409.80" type="ped_pedestrian">
        <walk from="225466105#2" to="225470358#2"/>
    </person>
    <person id="ped121" depart="1421.55" type="ped_pedestrian">
        <walk from="225470240#4" to="563620286"/>
    </person>
    <person id="ped122" depart="1433.30" type="ped_pedestrian">
        <walk from="-563620267" to="276157215#5"/>
    </person>
    <person id="ped123" depart="1445.05" type="ped_pedestrian">
        <walk from="-920874877#0" to="225466097#3"/>
    </person>
    <person id="ped124" depart="1456.79" type="ped_pedestrian">
        <walk from="225485362#0" to="1363617807"/>
    </person>
    <person id="ped125" depart="1468.54" type="ped_pedestrian">
        <walk from="180244656#1" to="372376369#2"/>
    </person>
    <person id="ped126" depart="1480.29" type="ped_pedestrian">
        <walk from="-372396764#6" to="225466122"/>
    </person>
    <person id="ped127" depart="1492.04" type="ped_pedestrian">
        <walk from="920874877#4" to="920874877#2"/>
    </person>
    <person id="ped128" depart="1503.79" type="ped_pedestrian">
        <walk from="-372396764#6" to="-563620286"/>
    </person>
    <person id="ped129" depart="1515.54" type="ped_pedestrian">
        <walk from="1085025207" to="563620284"/>
    </person>
    <person id="ped130" depart="1527.29" type="ped_pedestrian">
        <walk from="563602575#2" to="563602575#0"/>
    </person>
    <person id="ped131" depart="1539.03" type="ped_pedestrian">
        <walk from="225466081#2" to="-563602533#0"/>
    </person>
    <person id="ped132" depart="1550.78" type="ped_pedestrian">
        <walk from="563602459" to="258842238#0"/>
    </person>
    <person id="ped133" depart="1562.53" type="ped_pedestrian">
        <walk from="225476497#0" to="837196485#1"/>
    </person>
    <person id="ped134" depart="1574.28" type="ped_pedestrian">
        <walk from="225485350#1" to="-1134398611"/>
    </person>
    <person id="ped135" depart="1586.03" type="ped_pedestrian">
        <walk from="544940185" to="1363617807"/>
    </person>
    <person id="ped136" depart="1597.78" type="ped_pedestrian">
        <walk from="225485360#0" to="563620296"/>
    </person>
    <person id="ped137" depart="1609.52" type="ped_pedestrian">
        <walk from="-563602478" to="-561883405"/>
    </person>
    <person id="ped138" depart="1621.27" type="ped_pedestrian">
        <walk from="-543921248#0" to="225470257"/>
    </person>
    <person id="ped139" depart="1633.02" type="ped_pedestrian">
        <walk from="1134398599" to="225476492#3"/>
    </person>
    <person id="ped140" depart="1644.77" type="ped_pedestrian">
        <walk from="276157215#6" to="-563620267"/>
    </person>
    <person id="ped141" depart="1656.52" type="ped_pedestrian">
        <walk from="225485336#3" to="1050574279#6"/>
    </person>
    <person id="ped142" depart="1668.27" type="ped_pedestrian">
        <walk from="225466133#0" to="563602673"/>
    </person>
    <person id="ped143" depart="1680.01" type="ped_pedestrian">
        <walk from="563602496#1" to="-440267647"/>
    </person>
    <person id="ped144" depart="1691.76" type="ped_pedestrian">
        <walk from="225466107#3" to="1134398600#3"/>
    </person>
    <person id="ped145" depart="1703.51" type="ped_pedestrian">
        <walk from="-1046388838#0" to="372765901#3"/>
    </person>
    <person id="ped146" depart="1715.26" type="ped_pedestrian">
        <walk from="225485338#1" to="1050574279#4"/>
    </person>
    <person id="ped147" depart="1727.01" type="ped_pedestrian">
        <walk from="335766013#0" to="225470253#1"/>
    </person>
    <person id="ped148" depart="1738.76" type="ped_pedestrian">
        <walk from="225466110#1" to="-1363617805"/>
    </person>
    <person id="ped149" depart="1750.50" type="ped_pedestrian">
        <walk from="-372707394" to="563602633"/>
    </person>
    <person id="ped150" depart="1762.25" type="ped_pedestrian">
        <walk from="563602666#1" to="225470252#1"/>
    </person>
    <person id="ped151" depart="1774.00" type="ped_pedestrian">
        <walk from="563602462#0" to="225470358#1"/>
    </person>
    <person id="ped152" depart="1785.75" type="ped_pedestrian">
        <walk from="-563602518" to="-563602456"/>
    </person>
    <person id="ped153" depart="1797.50" type="ped_pedestrian">
        <walk from="180244632#2" to="563602653#1"/>
    </person>
    <person id="ped154" depart="1809.25" type="ped_pedestrian">
        <walk from="543821135" to="563602526#1"/>
    </person>
    <person id="ped155" depart="1820.99" type="ped_pedestrian">
        <walk from="563602653#1" to="-563620281#0"/>
    </person>
    <person id="ped156" depart="1832.74" type="ped_pedestrian">
        <walk from="1050574260#0" to="-543914346#0"/>
    </person>
    <person id="ped157" depart="1844.49" type="ped_pedestrian">
        <walk from="415361888" to="563602635"/>
    </person>
    <person id="ped158" depart="1856.24" type="ped_pedestrian">
        <walk from="225466100#4" to="225485327#0"/>
    </person>
    <person id="ped159" depart="1867.99" type="ped_pedestrian">
        <walk from="-563602526#1" to="563620281#0"/>
    </person>
    <person id="ped160" depart="1879.74" type="ped_pedestrian">
        <walk from="563602529" to="778437844#0"/>
    </person>
    <person id="ped161" depart="1891.48" type="ped_pedestrian">
        <walk from="543914347" to="563602575#2"/>
    </person>
    <person id="ped162" depart="1903.23" type="ped_pedestrian">
        <walk from="-183191792#0" to="335765996"/>
    </person>
    <person id="ped163" depart="1914.98" type="ped_pedestrian">
        <walk from="183191792#0" to="563620281#1"/>
    </person>
    <person id="ped164" depart="1926.73" type="ped_pedestrian">
        <walk from="543914343#1" to="563602529"/>
    </person>
    <person id="ped165" depart="1938.48" type="ped_pedestrian">
        <walk from="543914347" to="1134398595#1"/>
    </person>
    <person id="ped166" depart="1950.23" type="ped_pedestrian">
        <walk from="415361892#1" to="-543921248#1"/>
    </person>
    <person id="ped167" depart="1961.97" type="ped_pedestrian">
        <walk from="563602568#1" to="563602522#1"/>
    </person>
    <person id="ped168" depart="1973.72" type="ped_pedestrian">
        <walk from="-563620325#1" to="544940185"/>
    </person>
    <person id="ped169" depart="1985.47" type="ped_pedestrian">
        <walk from="225466123#1" to="180244626#3"/>
    </person>
    <person id="ped170" depart="1997.22" type="ped_pedestrian">
        <walk from="517434099" to="-586080836#0"/>
    </person>
    <person id="ped171" depart="2008.97" type="ped_pedestrian">
        <walk from="-183191774#0" to="-563616188#0"/>
    </person>
    <person id="ped172" depart="2020.72" type="ped_pedestrian">
        <walk from="180244661#2" to="563602529"/>
    </person>
    <person id="ped173" depart="2032.46" type="ped_pedestrian">
        <walk from="586080835" to="1134398601#2"/>
    </person>
    <person id="ped174" depart="2044.21" type="ped_pedestrian">
        <walk from="225485340#1" to="225466098#1"/>
    </person>
    <person id="ped175" depart="2055.96" type="ped_pedestrian">
        <walk from="778437850" to="225470245#1"/>
    </person>
    <person id="ped176" depart="2067.71" type="ped_pedestrian">
        <walk from="563620297" to="-561883404"/>
    </person>
    <person id="ped177" depart="2079.46" type="ped_pedestrian">
        <walk from="737722158" to="-563602654"/>
    </person>
    <person id="ped178" depart="2091.21" type="ped_pedestrian">
        <walk from="585995065#0" to="1085025207"/>
    </person>
    <person id="ped179" depart="2102.95" type="ped_pedestrian">
        <walk from="-543921248#1" to="225466111#3"/>
    </person>
    <person id="ped180" depart="2114.70" type="ped_pedestrian">
        <walk from="335765986#6" to="180244650#0"/>
    </person>
    <person id="ped181" depart="2126.45" type="ped_pedestrian">
        <walk from="225476493#0" to="225470236#3"/>
    </person>
    <person id="ped182" depart="2138.20" type="ped_pedestrian">
        <walk from="225466094#1" to="225470274#2"/>
    </person>
    <person id="ped183" depart="2149.95" type="ped_pedestrian">
        <walk from="1050574262#1" to="258844266#1"/>
    </person>
    <person id="ped184" depart="2161.70" type="ped_pedestrian">
        <walk from="-1046388837#0" to="563620270#1"/>
    </person>
    <person id="ped185" depart="2173.44" type="ped_pedestrian">
        <walk from="225470245#3" to="287145656#0"/>
    </person>
    <person id="ped186" depart="2185.19" type="ped_pedestrian">
        <walk from="335766013#1" to="225485361#5"/>
    </person>
    <person id="ped187" depart="2196.94" type="ped_pedestrian">
        <walk from="225466080#0" to="-372396764#3"/>
    </person>
    <person id="ped188" depart="2208.69" type="ped_pedestrian">
        <walk from="225485360#1" to="183191745#1"/>
    </person>
    <person id="ped189" depart="2220.44" type="ped_pedestrian">
        <walk from="180244650#1" to="563602502"/>
    </person>
    <person id="ped190" depart="2232.19" type="ped_pedestrian">
        <walk from="287145656#0" to="1363617808"/>
    </person>
    <person id="ped191" depart="2243.93" type="ped_pedestrian">
        <walk from="180244632#3" to="225466102#1"/>
    </person>
    <person id="ped192" depart="2255.68" type="ped_pedestrian">
        <walk from="225466100#0" to="1183056880#1"/>
    </person>
    <person id="ped193" depart="2267.43" type="ped_pedestrian">
        <walk from="-563602456" to="225466107#0"/>
    </person>
    <person id="ped194" depart="2279.18" type="ped_pedestrian">
        <walk from="563620304" to="225486058"/>
    </person>
    <person id="ped195" depart="2290.93" type="ped_pedestrian">
        <walk from="563602665#1" to="225485323#0"/>
    </person>
    <person id="ped196" depart="2302.68" type="ped_pedestrian">
        <walk from="1363617808" to="225470252#5"/>
    </person>
    <person id="ped197" depart="2314.42" type="ped_pedestrian">
        <walk from="-1020412074" to="1134398606"/>
    </person>
    <person id="ped198" depart="2326.17" type="ped_pedestrian">
        <walk from="225466110#3" to="225470357#1"/>
    </person>
    <person id="ped199" depart="2337.92" type="ped_pedestrian">
        <walk from="225485350#1" to="225466124#10"/>
    </person>
    <person id="ped200" depart="2349.67" type="ped_pedestrian">
        <walk from="225466115#1" to="-563620286"/>
    </person>
    <person id="ped201" depart="2361.42" type="ped_pedestrian">
        <walk from="225466124#8" to="563602658"/>
    </person>
    <person id="ped202" depart="2373.17" type="ped_pedestrian">
        <walk from="543821135" to="-563602637"/>
    </person>
    <person id="ped203" depart="2384.91" type="ped_pedestrian">
        <walk from="-415361887" to="225470236#7"/>
    </person>
    <person id="ped204" depart="2396.66" type="ped_pedestrian">
        <walk from="225485336#2" to="183191792#3"/>
    </person>
    <person id="ped205" depart="2408.41" type="ped_pedestrian">
        <walk from="556092151" to="372376369#1"/>
    </person>
    <person id="ped206" depart="2420.16" type="ped_pedestrian">
        <walk from="225485362#1" to="-585997479"/>
    </person>
    <person id="ped207" depart="2431.91" type="ped_pedestrian">
        <walk from="-563620260" to="-183191792#0"/>
    </person>
    <person id="ped208" depart="2443.66" type="ped_pedestrian">
        <walk from="1046388837#1" to="225466125"/>
    </person>
    <person id="ped209" depart="2455.40" type="ped_pedestrian">
        <walk from="563602505#0" to="-372396764#6"/>
    </person>
    <person id="ped210" depart="2467.15" type="ped_pedestrian">
        <walk from="225466102#6" to="225485334"/>
    </person>
    <person id="ped211" depart="2478.90" type="ped_pedestrian">
        <walk from="-563616188#1" to="225571729#0"/>
    </person>
    <person id="ped212" depart="2490.65" type="ped_pedestrian">
        <walk from="225466136#1" to="1046388837#0"/>
    </person>
    <person id="ped213" depart="2502.40" type="ped_pedestrian">
        <walk from="225485350#3" to="-1046388838#2"/>
    </person>
    <person id="ped214" depart="2514.15" type="ped_pedestrian">
        <walk from="372376369#1" to="372765901#2"/>
    </person>
    <person id="ped215" depart="2525.89" type="ped_pedestrian">
        <walk from="-543914349#0" to="225466109"/>
    </person>
    <person id="ped216" depart="2537.64" type="ped_pedestrian">
        <walk from="-563602650#0" to="585995063#5"/>
    </person>
    <person id="ped217" depart="2549.39" type="ped_pedestrian">
        <walk from="225470238" to="-276157215#3"/>
    </person>
    <person id="ped218" depart="2561.14" type="ped_pedestrian">
        <walk from="1050574260#0" to="563602502"/>
    </person>
    <person id="ped219" depart="2572.89" type="ped_pedestrian">
        <walk from="225466121#1" to="543914343#0"/>
    </person>
    <person id="ped220" depart="2584.64" type="ped_pedestrian">
        <walk from="225485361#2" to="837196485#2"/>
    </person>
    <person id="ped221" depart="2596.38" type="ped_pedestrian">
        <walk from="225473223" to="568382081"/>
    </person>
    <person id="ped222" depart="2608.13" type="ped_pedestrian">
        <walk from="563602646" to="225476497#1"/>
    </person>
    <person id="ped223" depart="2619.88" type="ped_pedestrian">
        <walk from="287145656#0" to="225470234#1"/>
    </person>
    <person id="ped224" depart="2631.63" type="ped_pedestrian">
        <walk from="561883409#5" to="225470252#5"/>
    </person>
    <person id="ped225" depart="2643.38" type="ped_pedestrian">
        <walk from="563602653#0" to="335766013#2"/>
    </person>
    <person id="ped226" depart="2655.13" type="ped_pedestrian">