<?xml version="1.0" encoding="UTF-8"?>

<!-- generated on 2025-03-02 09:02:41.777146 by osmWebWizard.py v1_21_0+0000-d7b3b481c43
<configuration>
    <net-file value="C:\Users\evans\Sumo\2025-03-02-09-02-35\osm.net.xml.gz"/>
    <output-trip-file value="C:\Users\evans\Sumo\2025-03-02-09-02-35\osm.bus.trips.xml"/>
    <route-file value="C:\Users\evans\Sumo\2025-03-02-09-02-35\osm.bus.rou.xml"/>
    <prefix value="bus"/>
    <trip-attributes value="departLane=&quot;best&quot;"/>
    <fringe-start-attributes value="departSpeed=&quot;max&quot;"/>
    <vehicle-class value="bus"/>
    <fringe-factor value="5"/>
    <vclass value="bus"/>
    <via-edge-types value="highway.motorway,highway.motorway_link,highway.trunk_link,highway.primary_link,highway.secondary_link,highway.tertiary_link"/>
    <min-distance value="600.0"/>
    <min-distance.fringe value="10.0"/>
    <remove-loops value="True"/>
    <validate value="True"/>
    <end value="86400.0"/>
    <insertion-density value="4.0"/>
</configuration>
-->

<!-- generated on 2025-03-02 09:02:41 by Eclipse SUMO duarouter Version 1.21.0
<duarouterConfiguration xmlns:xsi="http://www.w3.org/2001/XMLSchema-instance" xsi:noNamespaceSchemaLocation="http://sumo.dlr.de/xsd/duarouterConfiguration.xsd">

    <input>
        <net-file value="C:\Users\evans\Sumo\2025-03-02-09-02-35\osm.net.xml.gz"/>
        <route-files value="C:\Users\evans\Sumo\2025-03-02-09-02-35\osm.bus.trips.xml"/>
    </input>

    <output>
        <output-file value="C:\Users\evans\Sumo\2025-03-02-09-02-35\osm.bus.trips.xml.tmp"/>
        <alternatives-output value="NUL"/>
        <write-trips value="true"/>
    </output>

    <processing>
        <remove-loops value="true"/>
    </processing>

    <time>
        <begin value="0.0"/>
        <end value="86400.0"/>
    </time>

    <report>
        <no-warnings value="true"/>
        <ignore-errors value="true"/>
        <no-step-log value="true"/>
    </report>

</duarouterConfiguration>
-->

<routes xmlns:xsi="http://www.w3.org/2001/XMLSchema-instance" xsi:noNamespaceSchemaLocation="http://sumo.dlr.de/xsd/routes_file.xsd">
    <vType id="bus_bus" vClass="bus"/>
    <trip id="bus0" type="bus_bus" depart="0.00" departLane="best" from="551576182" to="-180244636#2"/>
    <trip id="bus1" type="bus_bus" depart="61.15" departLane="best" from="-586413246#3" to="-586077896#3"/>
    <trip id="bus2" type="bus_bus" depart="122.30" departLane="best" departSpeed="max" from="631653305" to="276157215#3"/>
    <trip id="bus3" type="bus_bus" depart="183.45" departLane="best" from="1339425865#0" to="-180244636#3"/>
    <trip id="bus4" type="bus_bus" depart="244.60" departLane="best" from="586077896#3" to="180244639#2"/>
    <trip id="bus5" type="bus_bus" depart="305.75" departLane="best" from="180244636#3" to="-568382083#0"/>
    <trip id="bus6" type="bus_bus" depart="366.90" departLane="best" from="586413246#17" to="565245613"/>
    <trip id="bus8" type="bus_bus" depart="489.20" departLane="best" from="-9151585#0" to="273902603"/>
    <trip id="bus10" type="bus_bus" depart="611.50" departLane="best" from="586413259#2" to="276157215#5"/>
    <trip id="bus11" type="bus_bus" depart="672.65" departLane="best" from="568382083#0" to="-180244637#0"/>
    <trip id="bus12" type="bus_bus" depart="733.81" departLane="best" departSpeed="max" from="-180244639#2" to="-586413246#0"/>
    <trip id="bus14" type="bus_bus" depart="856.11" departLane="best" from="-9151585#6" to="-540665092#2"/>
    <trip id="bus15" type="bus_bus" depart="917.26" departLane="best" from="565255792#2" to="9151585#2"/>
    <trip id="bus16" type="bus_bus" depart="978.41" departLane="best" from="656443273" to="-180244636#2"/>
    <trip id="bus17" type="bus_bus" depart="1039.56" departLane="best" from="-586413246#18" to="-586413246#12"/>
    <trip id="bus18" type="bus_bus" depart="1100.71" departLane="best" from="287145656#3" to="-586413246#16"/>
    <trip id="bus19" type="bus_bus" depart="1161.86" departLane="best" from="-9151585#5" to="-586077896#1"/>
    <trip id="bus20" type="bus_bus" depart="1223.01" departLane="best" from="-9152018#1" to="180244639#2"/>
    <trip id="bus21" type="bus_bus" depart="1284.16" departLane="best" from="-180244652#3" to="-180244637#0"/>
    <trip id="bus22" type="bus_bus" depart="1345.31" departLane="best" from="586413246#14" to="9152018#1"/>
    <trip id="bus23" type="bus_bus" depart="1406.46" departLane="best" departSpeed="max" from="-180244639#2" to="-9129472"/>
    <trip id="bus24" type="bus_bus" depart="1467.61" departLane="best" from="-9152018#1" to="180244652#3"/>
    <trip id="bus25" type="bus_bus" depart="1528.76" departLane="best" from="-9151585#2" to="586413249#1"/>
    <trip id="bus27" type="bus_bus" depart="1651.06" departLane="best" from="-276157215#4" to="-1339425865#1"/>
    <trip id="bus28" type="bus_bus" depart="1712.21" departLane="best" from="180244636#3" to="9142394#0"/>
    <trip id="bus30" type="bus_bus" depart="1834.51" departLane="best" from="586413254#1" to="-540665092#1"/>
    <trip id="bus31" type="bus_bus" depart="1895.66" departLane="best" from="586413246#11" to="180244652#3"/>
    <trip id="bus32" type="bus_bus" depart="1956.81" departLane="best" from="180244636#1" to="-656443274#3"/>
    <trip id="bus33" type="bus_bus" depart="2017.96" departLane="best" from="-586413254#0" to="180244639#1"/>
    <trip id="bus34" type="bus_bus" depart="2079.12" departLane="best" from="-180244652#2" to="180244639#0"/>
    <trip id="bus35" type="bus_bus" depart="2140.27" departLane="best" departSpeed="max" from="-180244639#2" to="586002131#0"/>
    <trip id="bus36" type="bus_bus" depart="2201.42" departLane="best" from="586077896#3" to="-276157224#1"/>
    <trip id="bus37" type="bus_bus" depart="2262.57" departLane="best" from="-180244639#0" to="273902603"/>
    <trip id="bus38" type="bus_bus" depart="2323.72" departLane="best" from="568382083#1" to="-586413249#1"/>
    <trip id="bus39" type="bus_bus" depart="2384.87" departLane="best" from="-9152018#0" to="-540665092#4"/>
    <trip id="bus40" type="bus_bus" depart="2446.02" departLane="best" from="180244636#0" to="180244645"/>
    <trip id="bus41" type="bus_bus" depart="2507.17" departLane="best" from="-276157215#6" to="-586077896#3"/>
    <trip id="bus42" type="bus_bus" depart="2568.32" departLane="best" from="-586413246#0" to="-586077896#1"/>
    <trip id="bus43" type="bus_bus" depart="2629.47" departLane="best" departSpeed="max" from="-180244639#2" to="-540665092#0"/>
    <trip id="bus44" type="bus_bus" depart="2690.62" departLane="best" from="586413246#11" to="551574176#0"/>
    <trip id="bus45" type="bus_bus" depart="2751.77" departLane="best" from="656443274#4" to="276157215#4"/>
    <trip id="bus46" type="bus_bus" depart="2812.92" departLane="best" from="180244637#1" to="-586077896#3"/>
    <trip id="bus47" type="bus_bus" depart="2874.07" departLane="best" from="-276157215#1" to="-1339425865#0"/>
    <trip id="bus48" type="bus_bus" depart="2935.22" departLane="best" from="1339425865#0" to="-180244636#4"/>
    <trip id="bus49" type="bus_bus" depart="2996.37" departLane="best" from="-9151585#5" to="-656443273"/>
    <trip id="bus50" type="bus_bus" depart="3057.52" departLane="best" from="586413259#2" to="-586413246#12"/>
    <trip id="bus51" type="bus_bus" depart="3118.67" departLane="best" from="-565255794" to="-180244636#0"/>
    <trip id="bus52" type="bus_bus" depart="3179.82" departLane="best" from="1339425865#0" to="-586413246#2"/>
    <trip id="bus53" type="bus_bus" depart="3240.97" departLane="best" from="586413246#14" to="-656443274#2"/>
    <trip id="bus54" type="bus_bus" depart="3302.12" departLane="best" from="180244636#1" to="586413249#1"/>
    <trip id="bus55" type="bus_bus" depart="3363.27" departLane="best" from="-9151585#1" to="-656443274#2"/>
    <trip id="bus56" type="bus_bus" depart="3424.42" departLane="best" from="586413254#1" to="-540665092#4"/>
    <trip id="bus57" type="bus_bus" depart="3485.58" departLane="best" from="180244645" to="-568382083#3"/>
    <trip id="bus58" type="bus_bus" depart="3546.73" departLane="best" from="-9142394#0" to="9152018#0"/>
    <trip id="bus60" type="bus_bus" depart="3669.03" departLane="best" departSpeed="max" from="276157224#0" to="-568382083#2"/>
    <trip id="bus61" type="bus_bus" depart="3730.18" departLane="best" from="-180244639#1" to="-276157217"/>
    <trip id="bus62" type="bus_bus" depart="3791.33" departLane="best" from="586413267#1" to="-586413246#12"/>
    <trip id="bus64" type="bus_bus" depart="3913.63" departLane="best" from="-276157215#5" to="-656443274#4"/>
    <trip id="bus65" type="bus_bus" depart="3974.78" departLane="best" departSpeed="max" from="-180244639#2" to="-568382083#3"/>
    <trip id="bus66" type="bus_bus" depart="4035.93" departLane="best" from="586413246#7" to="565255792#0"/>
    <trip id="bus67" type="bus_bus" depart="4097.08" departLane="best" departSpeed="max" from="533664762" to="9151585#6"/>
    <trip id="bus68" type="bus_bus" depart="4158.23" departLane="best" from="-276157215#3" to="273902603"/>
    <trip id="bus70" type="bus_bus" depart="4280.53" departLane="best" from="1339425865#0" to="-586413246#2"/>
    <trip id="bus71" type="bus_bus" depart="4341.68" departLane="best" departSpeed="max" from="-180244639#2" to="586413259#2"/>
    <trip id="bus73" type="bus_bus" depart="4463.98" departLane="best" departSpeed="max" from="631653305" to="-568382083#2"/>
    <trip id="bus74" type="bus_bus" depart="4525.13" departLane="best" from="-586413246#14" to="276157215#6"/>
    <trip id="bus75" type="bus_bus" depart="4586.28" departLane="best" from="586413246#11" to="565255792#0"/>
    <trip id="bus78" type="bus_bus" depart="4769.73" departLane="best" from="586413259#2" to="9151585#3"/>
    <trip id="bus79" type="bus_bus" depart="4830.89" departLane="best" from="180244636#2" to="565255794"/>
    <trip id="bus80" type="bus_bus" depart="4892.04" departLane="best" from="586413246#13" to="-276157224#1"/>
    <trip id="bus81" type="bus_bus" depart="4953.19" departLane="best" from="180244636#5" to="586413254#1"/>
    <trip id="bus83" type="bus_bus" depart="5075.49" departLane="best" from="551576182" to="9151585#3"/>
    <trip id="bus84" type="bus_bus" depart="5136.64" departLane="best" from="-9151585#4" to="273902603"/>
    <trip id="bus85" type="bus_bus" depart="5197.79" departLane="best" from="656443274#5" to="-276157224#1"/>
    <trip id="bus87" type="bus_bus" depart="5320.09" departLane="best" from="-9151585#0" to="-586413246#16"/>
    <trip id="bus88" type="bus_bus" depart="5381.24" departLane="best" from="-276157215#3" to="-1339425865#1"/>
    <trip id="bus89" type="bus_bus" depart="5442.39" departLane="best" departSpeed="max" from="533664762" to="180244639#2"/>
    <trip id="bus90" type="bus_bus" depart="5503.54" departLane="best" from="1315084524" to="-656443274#2"/>
    <trip id="bus91" type="bus_bus" depart="5564.69" departLane="best" from="656443273" to="586413246#6"/>
    <trip id="bus92" type="bus_bus" depart="5625.84" departLane="best" departSpeed="max" from="586002130#0" to="586413246#7"/>
    <trip id="bus93" type="bus_bus" depart="5686.99" departLane="best" from="287145656#0" to="9152018#0"/>
    <trip id="bus96" type="bus_bus" depart="5870.44" departLane="best" from="565255792#2" to="-180244636#4"/>
    <trip id="bus97" type="bus_bus" depart="5931.59" departLane="best" from="180244636#1" to="-568382083#3"/>
    <trip id="bus98" type="bus_bus" depart="5992.74" departLane="best" from="586413246#15" to="-551576182"/>
    <trip id="bus99" type="bus_bus" depart="6053.89" departLane="best" from="586413246#3" to="-568382083#3"/>
    <trip id="bus100" type="bus_bus" depart="6115.04" departLane="best" from="568382083#1" to="-180244636#2"/>
    <trip id="bus101" type="bus_bus" depart="6176.19" departLane="best" from="586413256" to="180244652#3"/>
    <trip id="bus102" type="bus_bus" depart="6237.35" departLane="best" from="568382083#0" to="565245613"/>
    <trip id="bus103" type="bus_bus" depart="6298.50" departLane="best" from="-180244652#2" to="-586413246#11"/>
    <trip id="bus104" type="bus_bus" depart="6359.65" departLane="best" from="565255792#5" to="9151585#6"/>
    <trip id="bus106" type="bus_bus" depart="6481.95" departLane="best" departSpeed="max" from="586002130#0" to="180244639#2"/>
    <trip id="bus107" type="bus_bus" depart="6543.10" departLane="best" from="586413246#6" to="273902603"/>
    <trip id="bus108" type="bus_bus" depart="6604.25" departLane="best" departSpeed="max" from="631653305" to="-568382083#1"/>
    <trip id="bus109" type="bus_bus" depart="6665.40" departLane="best" from="586413246#13" to="-540665092#1"/>
    <trip id="bus110" type="bus_bus" depart="6726.55" departLane="best" from="-586413246#2" to="-631653305"/>
    <trip id="bus111" type="bus_bus" depart="6787.70" departLane="best" from="-9152018#0" to="273902603"/>
    <trip id="bus112" type="bus_bus" depart="6848.85" departLane="best" from="-9152018#1" to="-568382083#2"/>
    <trip id="bus113" type="bus_bus" depart="6910.00" departLane="best" from="-9151585#0" to="-1339425865#0"/>
    <trip id="bus114" type="bus_bus" depart="6971.15" departLane="best" from="9129472" to="-568382083#3"/>
    <trip id="bus115" type="bus_bus" depart="7032.30" departLane="best" from="1315084524" to="-568382083#2"/>
    <trip id="bus117" type="bus_bus" depart="7154.60" departLane="best" from="-9151585#6" to="-540665092#4"/>
    <trip id="bus118" type="bus_bus" depart="7215.75" departLane="best" from="540665092#1" to="-180244636#3"/>
    <trip id="bus119" type="bus_bus" depart="7276.90" departLane="best" from="180244636#3" to="-540665092#2"/>
    <trip id="bus120" type="bus_bus" depart="7338.05" departLane="best" from="287145656#4" to="-180244636#3"/>
    <trip id="bus121" type="bus_bus" depart="7399.20" departLane="best" from="586077896#1" to="-9129472"/>
    <trip id="bus122" type="bus_bus" depart="7460.35" departLane="best" from="-586413246#15" to="276157215#2"/>
    <trip id="bus123" type="bus_bus" depart="7521.50" departLane="best" from="180244636#1" to="273902603"/>
    <trip id="bus124" type="bus_bus" depart="7582.66" departLane="best" from="-9152018#1" to="-656443274#1"/>
    <trip id="bus125" type="bus_bus" depart="7643.81" departLane="best" from="9129472" to="-568382083#0"/>
    <trip id="bus126" type="bus_bus" depart="7704.96" departLane="best" from="180244636#1" to="-540665092#1"/>
    <trip id="bus128" type="bus_bus" depart="7827.26" departLane="best" from="-9142394#1" to="9151585#2"/>
    <trip id="bus129" type="bus_bus" depart="7888.41" departLane="best" from="568382083#3" to="276157215#0"/>
    <trip id="bus131" type="bus_bus" depart="8010.71" departLane="best" from="586413246#12" to="-656443274#0"/>
    <trip id="bus132" type="bus_bus" depart="8071.86" departLane="best" from="-276157215#1" to="-656443273"/>
    <trip id="bus133" type="bus_bus" depart="8133.01" departLane="best" from="-276157215#3" to="9142394#1"/>
    <trip id="bus134" type="bus_bus" depart="8194.16" departLane="best" from="540665092#4" to="586413246#2"/>
    <trip id="bus135" type="bus_bus" depart="8255.31" departLane="best" departSpeed="max" from="586002130#0" to="9151585#0"/>
    <trip id="bus136" type="bus_bus" depart="8316.46" departLane="best" from="180244628" to="565255792#7"/>
    <trip id="bus137" type="bus_bus" depart="8377.61" departLane="best" from="-586413246#18" to="-586413246#7"/>
    <trip id="bus140" type="bus_bus" depart="8561.06" departLane="best" from="586077896#0" to="-586413246#11"/>
    <trip id="bus143" type="bus_bus" depart="8744.51" departLane="best" from="-180244652#0" to="586413246#1"/>
    <trip id="bus144" type="bus_bus" depart="8805.66" departLane="best" from="-276157215#0" to="-586077896#1"/>
    <trip id="bus146" type="bus_bus" depart="8927.96" departLane="best" departSpeed="max" from="423654395" to="-180244636#6"/>
    <trip id="bus147" type="bus_bus" depart="8989.12" departLane="best" from="-586413246#14" to="-276157224#1"/>
    <trip id="bus148" type="bus_bus" depart="9050.27" departLane="best" from="565255794" to="-276157224#1"/>
    <trip id="bus149" type="bus_bus" depart="9111.42" departLane="best" from="-9151585#3" to="180244652#2"/>
    <trip id="bus150" type="bus_bus" depart="9172.57" departLane="best" from="568382083#0" to="-586080837"/>
    <trip id="bus151" type="bus_bus" depart="9233.72" departLane="best" from="540665092#3" to="-180244636#0"/>
    <trip id="bus152" type="bus_bus" depart="9294.87" departLane="best" departSpeed="max" from="276157224#0" to="-586413246#18"/>
    <trip id="bus153" type="bus_bus" depart="9356.02" departLane="best" from="-9151585#2" to="273902603"/>
    <trip id="bus155" type="bus_bus" depart="9478.32" departLane="best" from="586413259#3" to="180244639#1"/>
    <trip id="bus156" type="bus_bus" depart="9539.47" departLane="best" from="586413263#1" to="276157215#4"/>
    <trip id="bus157" type="bus_bus" depart="9600.62" departLane="best" from="180244637#0" to="169152446#0"/>
    <trip id="bus158" type="bus_bus" depart="9661.77" departLane="best" from="540665092#4" to="-180244637#1"/>
    <trip id="bus159" type="bus_bus" depart="9722.92" departLane="best" from="656443274#5" to="180244637#0"/>
    <trip id="bus160" type="bus_bus" depart="9784.07" departLane="best" departSpeed="max" from="-180244639#2" to="531094133#1"/>
    <trip id="bus161" type="bus_bus" depart="9845.22" departLane="best" from="-180244639#0" to="-540665092#0"/>
    <trip id="bus162" type="bus_bus" depart="9906.37" departLane="best" from="287145656#3" to="-586413246#8"/>
    <trip id="bus163" type="bus_bus" depart="9967.52" departLane="best" from="586413246#14" to="-586077896#3"/>
    <trip id="bus164" type="bus_bus" depart="10028.67" departLane="best" from="180244636#1" to="586413249#1"/>
    <trip id="bus165" type="bus_bus" depart="10089.82" departLane="best" from="540665092#2" to="276157215#0"/>
    <trip id="bus166" type="bus_bus" depart="10150.97" departLane="best" from="1315084524" to="-180244636#0"/>
    <trip id="bus167" type="bus_bus" depart="10212.12" departLane="best" from="568382083#0" to="-180244636#1"/>
    <trip id="bus170" type="bus_bus" depart="10395.58" departLane="best" from="586413246#5" to="180244652#3"/>
    <trip id="bus171" type="bus_bus" depart="10456.73" departLane="best" from="540665092#0" to="-586413249#0"/>
    <trip id="bus172" type="bus_bus" depart="10517.88" departLane="best" from="656443274#6" to="180244639#2"/>
    <trip id="bus173" type="bus_bus" depart="10579.03" departLane="best" from="-180244652#2" to="276157215#1"/>
    <trip id="bus174" type="bus_bus" depart="10640.18" departLane="best" from="180244636#6" to="-1339425865#0"/>
    <trip id="bus175" type="bus_bus" depart="10701.33" departLane="best" from="656443274#1" to="-586413246#13"/>
    <trip id="bus176" type="bus_bus" depart="10762.48" departLane="best" from="-180244652#3" to="9151585#0"/>
    <trip id="bus178" type="bus_bus" depart="10884.78" departLane="best" from="180244637#0" to="-540665092#4"/>
    <trip id="bus180" type="bus_bus" depart="11007.08" departLane="best" from="-180244652#2" to="276157215#4"/>
    <trip id="bus181" type="bus_bus" depart="11068.23" departLane="best" from="-586413246#6" to="-656443275"/>
    <trip id="bus182" type="bus_bus" depart="11129.38" departLane="best" from="586413246#2" to="273902603"/>
    <trip id="bus183" type="bus_bus" depart="11190.53" departLane="best" from="180244636#4" to="531094133#1"/>
    <trip id="bus184" type="bus_bus" depart="11251.68" departLane="best" from="656443274#1" to="9151585#2"/>
    <trip id="bus185" type="bus_bus" depart="11312.83" departLane="best" from="-9151585#6" to="551574176#0"/>
    <trip id="bus186" type="bus_bus" depart="11373.98" departLane="best" departSpeed="max" from="276157224#0" to="-656443274#3"/>
    <trip id="bus187" type="bus_bus" depart="11435.13" departLane="best" from="180244636#0" to="565245613"/>
    <trip id="bus189" type="bus_bus" depart="11557.43" departLane="best" from="-9152018#0" to="-656443273"/>
    <trip id="bus190" type="bus_bus" depart="11618.58" departLane="best" from="180244636#5" to="-276157224#1"/>
    <trip id="bus191" type="bus_bus" depart="11679.73" departLane="best" from="568382083#3" to="180244639#2"/>
    <trip id="bus192" type="bus_bus" depart="11740.89" departLane="best" departSpeed="max" from="276157224#0" to="9142394#0"/>
    <trip id="bus193" type="bus_bus" depart="11802.04" departLane="best" from="656443274#1" to="180244639#2"/>
    <trip id="bus194" type="bus_bus" depart="11863.19" departLane="best" from="-9152018#1" to="-656443274#4"/>
    <trip id="bus195" type="bus_bus" depart="11924.34" departLane="best" from="-276157215#1" to="586413246#17"/>
    <trip id="bus196" type="bus_bus" depart="11985.49" departLane="best" departSpeed="max" from="423654395" to="9152018#1"/>
    <trip id="bus197" type="bus_bus" depart="12046.64" departLane="best" departSpeed="max" from="276157224#0" to="-656443274#0"/>
    <trip id="bus198" type="bus_bus" depart="12107.79" departLane="best" departSpeed="max" from="276157224#0" to="273902603"/>
    <trip id="bus199" type="bus_bus" depart="12168.94" departLane="best" from="180244636#4" to="-631653305"/>
    <trip id="bus200" type="bus_bus" depart="12230.09" departLane="best" departSpeed="max" from="423654395" to="-586413246#0"/>
    <trip id="bus201" type="bus_bus" depart="12291.24" departLane="best" from="586413246#2" to="9142394#0"/>
    <trip id="bus203" type="bus_bus" depart="12413.54" departLane="best" departSpeed="max" from="586002130#0" to="9151585#5"/>
    <trip id="bus204" type="bus_bus" depart="12474.69" departLane="best" from="565255792#1" to="586413246#7"/>
    <trip id="bus205" type="bus_bus" depart="12535.84" departLane="best" from="586413263#1" to="-180244636#5"/>
    <trip id="bus206" type="bus_bus" depart="12596.99" departLane="best" departSpeed="max" from="-180244639#2" to="-540665092#0"/>
    <trip id="bus207" type="bus_bus" depart="12658.14" departLane="best" from="656443274#1" to="9152018#1"/>
    <trip id="bus208" type="bus_bus" depart="12719.29" departLane="best" from="-276157215#1" to="-540665092#0"/>
    <trip id="bus209" type="bus_bus" depart="12780.44" departLane="best" from="586413263#1" to="-586080837"/>
    <trip id="bus211" type="bus_bus" depart="12902.74" departLane="best" from="-586413246#7" to="-656443275"/>
    <trip id="bus212" type="bus_bus" depart="12963.89" departLane="best" from="287145656#4" to="586413246#1"/>
    <trip id="bus213" type="bus_bus" depart="13025.04" departLane="best" from="540665092#1" to="276157215#1"/>
    <trip id="bus215" type="bus_bus" depart="13147.35" departLane="best" from="586413246#12" to="-656443273"/>
    <trip id="bus217" type="bus_bus" depart="13269.65" departLane="best" from="1339425865#1" to="-586413246#13"/>
    <trip id="bus219" type="bus_bus" depart="13391.95" departLane="best" from="656443275" to="-276157217"/>
    <trip id="bus220" type="bus_bus" depart="13453.10" departLane="best" from="551576182" to="9152018#1"/>
    <trip id="bus221" type="bus_bus" depart="13514.25" departLane="best" departSpeed="max" from="423654395" to="276157215#4"/>
    <trip id="bus222" type="bus_bus" depart="13575.40" departLane="best" from="-9151585#3" to="551574176#0"/>
    <trip id="bus224" type="bus_bus" depart="13697.70" departLane="best" from="565255792#3" to="586413246#4"/>
    <trip id="bus225" type="bus_bus" depart="13758.85" departLane="best" from="565255792#0" to="-586413249#0"/>
    <trip id="bus226" type="bus_bus" depart="13820.00" departLane="best" from="180244636#0" to="276157215#6"/>
    <trip id="bus227" type="bus_bus" depart="13881.15" departLane="best" from="-586413246#8" to="-568382083#2"/>
    <trip id="bus228" type="bus_bus" depart="13942.30" departLane="best" from="276157217" to="-656443273"/>
    <trip id="bus229" type="bus_bus" depart="14003.45" departLane="best" from="656443274#5" to="-276157224#1"/>
    <trip id="bus230" type="bus_bus" depart="14064.60" departLane="best" from="-9151585#0" to="-287145656#4"/>
    <trip id="bus231" type="bus_bus" depart="14125.75" departLane="best" from="-9151585#1" to="586413249#1"/>
    <trip id="bus232" type="bus_bus" depart="14186.90" departLane="best" departSpeed="max" from="586002130#0" to="9151585#4"/>
    <trip id="bus233" type="bus_bus" depart="14248.05" departLane="best" from="-9151585#1" to="586413246#13"/>
    <trip id="bus234" type="bus_bus" depart="14309.20" departLane="best" departSpeed="max" from="-9142394#1" to="586413246#1"/>
    <trip id="bus235" type="bus_bus" depart="14370.35" departLane="best" from="180244636#0" to="273902603"/>
    <trip id="bus236" type="bus_bus" depart="14431.50" departLane="best" from="180244636#4" to="551574176#0"/>
    <trip id="bus237" type="bus_bus" depart="14492.66" departLane="best" from="586413246#4" to="-656443274#6"/>
    <trip id="bus238" type="bus_bus" depart="14553.81" departLane="best" from="180244636#2" to="586413259#3"/>
    <trip id="bus240" type="bus_bus" depart="14676.11" departLane="best" from="-586413249#1" to="180244639#1"/>
    <trip id="bus241" type="bus_bus" depart="14737.26" departLane="best" from="-276157215#1" to="586413259#3"/>
    <trip id="bus242" type="bus_bus" depart="14798.41" departLane="best" from="287145656#4" to="-180244636#1"/>
    <trip id="bus243" type="bus_bus" depart="14859.56" departLane="best" from="586413266#1" to="-568382083#1"/>
    <trip id="bus244" type="bus_bus" depart="14920.71" departLane="best" from="656443275" to="9152018#0"/>
    <trip id="bus245" type="bus_bus" depart="14981.86" departLane="best" from="586002130#1" to="-540665092#2"/>
    <trip id="bus246" type="bus_bus" depart="15043.01" departLane="best" from="-180244652#0" to="9151585#5"/>
    <trip id="bus247" type="bus_bus" depart="15104.16" departLane="best" from="9129472" to="-180244636#4"/>
    <trip id="bus248" type="bus_bus" depart="15165.31" departLane="best" departSpeed="max" from="-9142394#1" to="-586080837"/>
    <trip id="bus249" type="bus_bus" depart="15226.46" departLane="best" departSpeed="max" from="-9142394#1" to="9151585#2"/>
    <trip id="bus250" type="bus_bus" depart="15287.61" departLane="best" from="565255794" to="-276157224#1"/>
    <trip id="bus251" type="bus_bus" depart="15348.76" departLane="best" from="-586413249#0" to="-180244636#1"/>
    <trip id="bus252" type="bus_bus" depart="15409.91" departLane="best" departSpeed="max" from="533664762" to="-180244636#1"/>
    <trip id="bus253" type="bus_bus" depart="15471.06" departLane="best" departSpeed="max" from="-180244639#2" to="586002131#1"/>
    <trip id="bus256" type="bus_bus" depart="15654.51" departLane="best" from="565255792#4" to="-180244636#3"/>
    <trip id="bus257" type="bus_bus" depart="15715.66" departLane="best" from="586413246#11" to="-631653305"/>
    <trip id="bus258" type="bus_bus" depart="15776.81" departLane="best" from="540665092#2" to="180244639#0"/>
    <trip id="bus259" type="bus_bus" depart="15837.96" departLane="best" from="586002130#1" to="180244652#2"/>
    <trip id="bus261" type="bus_bus" depart="15960.27" departLane="best" from="-276157215#3" to="180244639#2"/>
    <trip id="bus263" type="bus_bus" depart="16082.57" departLane="best" from="-9151585#0" to="180244652#0"/>
    <trip id="bus265" type="bus_bus" depart="16204.87" departLane="best" departSpeed="max" from="631653305" to="276157215#0"/>
    <trip id="bus266" type="bus_bus" depart="16266.02" departLane="best" departSpeed="max" from="-180244639#2" to="-586413246#2"/>
    <trip id="bus267" type="bus_bus" depart="16327.17" departLane="best" from="656443274#2" to="9152018#0"/>
    <trip id="bus268" type="bus_bus" depart="16388.32" departLane="best" from="276157217" to="-180244636#1"/>
    <trip id="bus269" type="bus_bus" depart="16449.47" departLane="best" departSpeed="max" from="533664762" to="276157215#6"/>
    <trip id="bus270" type="bus_bus" depart="16510.62" departLane="best" from="568382083#0" to="586413246#7"/>
    <trip id="bus271" type="bus_bus" depart="16571.77" departLane="best" from="656443274#5" to="-180244636#1"/>
    <trip id="bus272" type="bus_bus" depart="16632.92" departLane="best" from="-276157215#0" to="-568382083#0"/>
    <trip id="bus273" type="bus_bus" depart="16694.07" departLane="best" departSpeed="max" from="423654395" to="276157215#1"/>
    <trip id="bus274" type="bus_bus" depart="16755.22" departLane="best" from="656443274#3" to="-276157224#1"/>
    <trip id="bus275" type="bus_bus" depart="16816.37" departLane="best" departSpeed="max" from="586002130#0" to="9151585#1"/>
    <trip id="bus276" type="bus_bus" depart="16877.52" departLane="best" departSpeed="max" from="423654395" to="-568382083#3"/>
    <trip id="bus277" type="bus_bus" depart="16938.67" departLane="best" departSpeed="max" from="423654395" to="-586413246#14"/>
    <trip id="bus279" type="bus_bus" depart="17060.97" departLane="best" from="551576182" to="-180244636#3"/>
    <trip id="bus280" type="bus_bus" depart="17122.12" departLane="best" from="656443274#3" to="586413246#2"/>
    <trip id="bus281" type="bus_bus" depart="17183.27" departLane="best" from="568382083#0" to="-586413249#0"/>
    <trip id="bus283" type="bus_bus" depart="17305.58" departLane="best" from="540665092#3" to="-180244636#4"/>
    <trip id="bus284" type="bus_bus" depart="17366.73" departLane="best" from="1315084524" to="-656443273"/>
    <trip id="bus285" type="bus_bus" depart="17427.88" departLane="best" from="-180244652#2" to="180244639#0"/>
    <trip id="bus286" type="bus_bus" depart="17489.03" departLane="best" from="565255792#4" to="180244639#0"/>
    <trip id="bus287" type="bus_bus" depart="17550.18" departLane="best" from="180244636#1" to="586413246#18"/>
    <trip id="bus289" type="bus_bus" depart="17672.48" departLane="best" from="565255794" to="180244639#0"/>
    <trip id="bus290" type="bus_bus" depart="17733.63" departLane="best" from="-9151585#4" to="-287145656#4"/>