<?xml version="1.0" encoding="UTF-8"?>

<!-- generated on 2025-02-26 16:49:03.561543 by osmWebWizard.py v1_21_0+0000-d7b3b481c43
<configuration>
    <net-file value="C:\Users\evans\Sumo\2025-02-26-16-48-44\osm.net.xml.gz"/>
    <output-trip-file value="C:\Users\evans\Sumo\2025-02-26-16-48-44\osm.passenger.trips.xml"/>
    <route-file value="C:\Users\evans\Sumo\2025-02-26-16-48-44\osm.passenger.rou.xml"/>
    <prefix value="veh"/>
    <trip-attributes value="departLane=&quot;best&quot;"/>
    <fringe-start-attributes value="departSpeed=&quot;max&quot;"/>
    <vehicle-class value="passenger"/>
    <lanes value="True"/>
    <fringe-factor value="5"/>
    <allow-fringe.min-length value="1000.0"/>
    <via-edge-types value="highway.motorway,highway.motorway_link,highway.trunk_link,highway.primary_link,highway.secondary_link,highway.tertiary_link"/>
    <min-distance value="300.0"/>
    <min-distance.fringe value="10.0"/>
    <remove-loops value="True"/>
    <validate value="True"/>
    <end value="86400.0"/>
    <insertion-density value="12.0"/>
</configuration>
-->

<!-- generated on 2025-02-26 16:49:02 by Eclipse SUMO duarouter Version 1.21.0
<duarouterConfiguration xmlns:xsi="http://www.w3.org/2001/XMLSchema-instance" xsi:noNamespaceSchemaLocation="http://sumo.dlr.de/xsd/duarouterConfiguration.xsd">

    <input>
        <net-file value="C:\Users\evans\Sumo\2025-02-26-16-48-44\osm.net.xml.gz"/>
        <route-files value="C:\Users\evans\Sumo\2025-02-26-16-48-44\osm.passenger.trips.xml"/>
    </input>

    <output>
        <output-file value="C:\Users\evans\Sumo\2025-02-26-16-48-44\osm.passenger.trips.xml.tmp"/>
        <alternatives-output value="NUL"/>
        <write-trips value="true"/>
    </output>

    <processing>
        <remove-loops value="true"/>
    </processing>

    <time>
        <begin value="0.0"/>
        <end value="86400.0"/>
    </time>

    <report>
        <no-warnings value="true"/>
        <ignore-errors value="true"/>
        <no-step-log value="true"/>
    </report>

</duarouterConfiguration>
-->

<routes xmlns:xsi="http://www.w3.org/2001/XMLSchema-instance" xsi:noNamespaceSchemaLocation="http://sumo.dlr.de/xsd/routes_file.xsd">
    <vType id="veh_passenger" vClass="passenger"/>
    <trip id="veh0" type="veh_passenger" depart="0.00" departLane="best" departSpeed="max" from="290619644#0" to="1315066559"/>
    <trip id="veh1" type="veh_passenger" depart="6.15" departLane="best" from="586077896#3" to="-505368797#2"/>
    <trip id="veh2" type="veh_passenger" depart="12.29" departLane="best" from="423728989" to="-341624738#1"/>
    <trip id="veh3" type="veh_passenger" depart="18.44" departLane="best" from="828146450#0" to="1339425865#1"/>
    <trip id="veh4" type="veh_passenger" depart="24.58" departLane="best" from="-9150977#2" to="1315066561"/>
    <trip id="veh5" type="veh_passenger" depart="30.73" departLane="best" from="505368797#0" to="-1333430094#3"/>
    <trip id="veh6" type="veh_passenger" depart="36.88" departLane="best" from="-1315066558" to="343541421"/>
    <trip id="veh7" type="veh_passenger" depart="43.02" departLane="best" from="31031717#0" to="-180244636#6"/>
    <trip id="veh8" type="veh_passenger" depart="49.17" departLane="best" from="505368797#2" to="276157215#6"/>
    <trip id="veh9" type="veh_passenger" depart="55.31" departLane="best" from="568382083#3" to="-1044405760#2"/>
    <trip id="veh10" type="veh_passenger" depart="61.46" departLane="best" from="568377839" to="-371908694#4"/>
    <trip id="veh11" type="veh_passenger" depart="67.61" departLane="best" from="-656443275" to="-290619644#0"/>
    <trip id="veh13" type="veh_passenger" depart="79.90" departLane="best" from="586413263#1" to="277745441"/>
    <trip id="veh15" type="veh_passenger" depart="92.19" departLane="best" from="169152446#0" to="9148332#11"/>
    <trip id="veh16" type="veh_passenger" depart="98.34" departLane="best" from="-9138488#12" to="180244639#2"/>
    <trip id="veh17" type="veh_passenger" depart="104.48" departLane="best" from="586080834" to="277745441"/>
    <trip id="veh18" type="veh_passenger" depart="110.63" departLane="best" from="-656443273" to="276157215#1"/>
    <trip id="veh20" type="veh_passenger" depart="122.92" departLane="best" from="-540665092#10" to="-586413246#8"/>
    <trip id="veh21" type="veh_passenger" depart="129.07" departLane="best" departSpeed="max" from="-180244639#2" to="-586413246#0"/>
    <trip id="veh22" type="veh_passenger" depart="135.21" departLane="best" from="287145664#3" to="-9130541#2"/>
    <trip id="veh23" type="veh_passenger" depart="141.36" departLane="best" from="568382083#1" to="9138488#1"/>
    <trip id="veh24" type="veh_passenger" depart="147.50" departLane="best" from="-290619644#3" to="277745441"/>
    <trip id="veh25" type="veh_passenger" depart="153.65" departLane="best" from="341623766#1" to="423655377#0"/>
    <trip id="veh26" type="veh_passenger" depart="159.80" departLane="best" from="287145664#3" to="9138488#16"/>
    <trip id="veh27" type="veh_passenger" depart="165.94" departLane="best" from="-9151585#2" to="287145656#3"/>
    <trip id="veh28" type="veh_passenger" depart="172.09" departLane="best" departSpeed="max" from="273902600" to="-343537871"/>
    <trip id="veh29" type="veh_passenger" depart="178.23" departLane="best" from="586413254#1" to="540665092#9"/>
    <trip id="veh30" type="veh_passenger" depart="184.38" departLane="best" from="-540665092#10" to="1315066562"/>
    <trip id="veh31" type="veh_passenger" depart="190.53" departLane="best" from="-415362031#1" to="9138488#3"/>
    <trip id="veh32" type="veh_passenger" depart="196.67" departLane="best" departSpeed="max" from="341623766#0" to="-9142394#6"/>
    <trip id="veh33" type="veh_passenger" depart="202.82" departLane="best" departSpeed="max" from="9124791#0" to="1088638458"/>
    <trip id="veh34" type="veh_passenger" depart="208.96" departLane="best" from="568380593" to="540665092#7"/>
    <trip id="veh35" type="veh_passenger" depart="215.11" departLane="best" departSpeed="max" from="273902600" to="-568382083#2"/>
    <trip id="veh36" type="veh_passenger" depart="221.26" departLane="best" from="-276157215#1" to="656443275"/>
    <trip id="veh37" type="veh_passenger" depart="227.40" departLane="best" from="180244636#0" to="-1333430094#3"/>
    <trip id="veh38" type="veh_passenger" depart="233.55" departLane="best" departSpeed="max" from="-210830412" to="283536956#0"/>
    <trip id="veh39" type="veh_passenger" depart="239.69" departLane="best" from="565245609#0" to="-9148332#5"/>
    <trip id="veh40" type="veh_passenger" depart="245.84" departLane="best" from="-1338769043#2" to="-9138488#4"/>
    <trip id="veh41" type="veh_passenger" depart="251.99" departLane="best" from="9153734#1" to="1338769044#1"/>
    <trip id="veh42" type="veh_passenger" depart="258.13" departLane="best" departSpeed="max" from="9148293" to="586413259#2"/>
    <trip id="veh43" type="veh_passenger" depart="264.28" departLane="best" from="1044405760#6" to="423654395"/>
    <trip id="veh44" type="veh_passenger" depart="270.42" departLane="best" from="341635866" to="1339425865#1"/>
    <trip id="veh45" type="veh_passenger" depart="276.57" departLane="best" from="568382083#1" to="-287145656#3"/>
    <trip id="veh47" type="veh_passenger" depart="288.86" departLane="best" from="1044405760#8" to="9142394#6"/>
    <trip id="veh48" type="veh_passenger" depart="295.01" departLane="best" from="656443274#4" to="-568382083#3"/>
    <trip id="veh49" type="veh_passenger" depart="301.15" departLane="best" from="1333430094#1" to="-341623766#3"/>
    <trip id="veh50" type="veh_passenger" depart="307.30" departLane="best" departSpeed="max" from="9124791#0" to="631611869#1"/>
    <trip id="veh51" type="veh_passenger" depart="313.45" departLane="best" from="-586413246#5" to="287145656#3"/>
    <trip id="veh52" type="veh_passenger" depart="319.59" departLane="best" from="283536956#0" to="-290619644#0"/>
    <trip id="veh53" type="veh_passenger" depart="325.74" departLane="best" from="-540665092#5" to="169152446#0"/>
    <trip id="veh54" type="veh_passenger" depart="331.88" departLane="best" from="551574175#0" to="1338769044#1"/>
    <trip id="veh55" type="veh_passenger" depart="338.03" departLane="best" from="1044405760#0" to="-656443274#6"/>
    <trip id="veh56" type="veh_passenger" depart="344.18" departLane="best" departSpeed="max" from="-1090698273#3" to="-9130541#3"/>
    <trip id="veh57" type="veh_passenger" depart="350.32" departLane="best" from="-631611869#1" to="1338769043#1"/>
    <trip id="veh58" type="veh_passenger" depart="356.47" departLane="best" from="-656443274#5" to="9138488#9"/>
    <trip id="veh59" type="veh_passenger" depart="362.61" departLane="best" from="-1339425865#0" to="1315066561"/>
    <trip id="veh60" type="veh_passenger" depart="368.76" departLane="best" from="-1338769043#4" to="-540665092#2"/>
    <trip id="veh61" type="veh_passenger" depart="374.91" departLane="best" from="-540665092#7" to="276157224#0"/>
    <trip id="veh62" type="veh_passenger" depart="381.05" departLane="best" from="129601762#1" to="180244639#2"/>
    <trip id="veh64" type="veh_passenger" depart="393.34" departLane="best" departSpeed="max" from="-9150977#22" to="415362031#0"/>
    <trip id="veh65" type="veh_passenger" depart="399.49" departLane="best" from="180244628" to="423655377#1"/>
    <trip id="veh66" type="veh_passenger" depart="405.64" departLane="best" from="371908690#1" to="-656443274#2"/>
    <trip id="veh67" type="veh_passenger" depart="411.78" departLane="best" from="988304974" to="1338769043#2"/>
    <trip id="veh68" type="veh_passenger" depart="417.93" departLane="best" from="-273902602#1" to="-533665196#0"/>
    <trip id="veh69" type="veh_passenger" depart="424.07" departLane="best" from="-656443274#6" to="276157215#6"/>
    <trip id="veh70" type="veh_passenger" depart="430.22" departLane="best" from="-540665092#11" to="423655377#0"/>
    <trip id="veh71" type="veh_passenger" depart="436.37" departLane="best" from="-1338769043#5" to="283536956#2"/>
    <trip id="veh72" type="veh_passenger" depart="442.51" departLane="best" from="-540665092#10" to="-828146450#0"/>
    <trip id="veh73" type="veh_passenger" depart="448.66" departLane="best" from="631653305#0" to="1338769044#0"/>
    <trip id="veh74" type="veh_passenger" depart="454.80" departLane="best" from="-540665092#5" to="-341623766#3"/>
    <trip id="veh75" type="veh_passenger" depart="460.95" departLane="best" from="-415362031#3" to="287145656#0"/>
    <trip id="veh76" type="veh_passenger" depart="467.10" departLane="best" from="9138488#13" to="273902602#1"/>
    <trip id="veh77" type="veh_passenger" depart="473.24" departLane="best" from="568382083#0" to="-343535439"/>
    <trip id="veh78" type="veh_passenger" depart="479.39" departLane="best" from="-180244637#0" to="9151585#2"/>
    <trip id="veh79" type="veh_passenger" depart="485.53" departLane="best" departSpeed="max" from="-9150977#22" to="1090698273#1"/>
    <trip id="veh80" type="veh_passenger" depart="491.68" departLane="best" from="423728986" to="-341624737#0"/>
    <trip id="veh81" type="veh_passenger" depart="497.83" departLane="best" from="-9150977#15" to="180244652#3"/>
    <trip id="veh83" type="veh_passenger" depart="510.12" departLane="best" from="656443273" to="540665092#8"/>
    <trip id="veh84" type="veh_passenger" depart="516.26" departLane="best" from="343537871" to="-1044405760#3"/>
    <trip id="veh85" type="veh_passenger" depart="522.41" departLane="best" from="-9150977#2" to="-586413246#1"/>
    <trip id="veh86" type="veh_passenger" depart="528.56" departLane="best" from="-551576182" to="-9122810#3"/>
    <trip id="veh87" type="veh_passenger" depart="534.70" departLane="best" from="1044405760#10" to="586413259#3"/>
    <trip id="veh88" type="veh_passenger" depart="540.85" departLane="best" from="180244652#3" to="-1333430095#0"/>
    <trip id="veh89" type="veh_passenger" depart="546.99" departLane="best" from="988304974" to="-586080834"/>
    <trip id="veh90" type="veh_passenger" depart="553.14" departLane="best" departSpeed="max" from="9148293" to="-9130541#1"/>
    <trip id="veh91" type="veh_passenger" depart="559.29" departLane="best" from="586413266#1" to="-341623766#0"/>
    <trip id="veh93" type="veh_passenger" depart="571.58" departLane="best" from="-9138488#13" to="9150977#22"/>
    <trip id="veh95" type="veh_passenger" depart="583.87" departLane="best" from="1044405760#9" to="-9148332#7"/>
    <trip id="veh97" type="veh_passenger" depart="596.16" departLane="best" from="267110730#3" to="423654395"/>
    <trip id="veh98" type="veh_passenger" depart="602.31" departLane="best" from="-287145656#4" to="631611869#1"/>
    <trip id="veh99" type="veh_passenger" depart="608.45" departLane="best" from="-9147358#1" to="276157215#2"/>
    <trip id="veh100" type="veh_passenger" depart="614.60" departLane="best" from="180244636#4" to="533665191"/>
    <trip id="veh101" type="veh_passenger" depart="620.75" departLane="best" from="-1333430095#1" to="276157215#4"/>
    <trip id="veh102" type="veh_passenger" depart="626.89" departLane="best" from="1333430094#3" to="586413246#3"/>
    <trip id="veh104" type="veh_passenger" depart="639.18" departLane="best" from="-1338769044#1" to="-341624738#1"/>
    <trip id="veh105" type="veh_passenger" depart="645.33" departLane="best" from="-540665092#3" to="276157215#5"/>
    <trip id="veh106" type="veh_passenger" depart="651.48" departLane="best" from="691528616" to="540665092#7"/>
    <trip id="veh107" type="veh_passenger" depart="657.62" departLane="best" from="-276157215#6" to="277745441"/>
    <trip id="veh108" type="veh_passenger" depart="663.77" departLane="best" from="-9148332#9" to="276157215#4"/>
    <trip id="veh109" type="veh_passenger" depart="669.91" departLane="best" from="-1338769043#5" to="-9137054#3"/>
    <trip id="veh110" type="veh_passenger" depart="676.06" departLane="best" from="-371908694#1" to="415362031#4"/>
    <trip id="veh111" type="veh_passenger" depart="682.21" departLane="best" from="341623766#3" to="656443273"/>
    <trip id="veh112" type="veh_passenger" depart="688.35" departLane="best" from="-1338769043#6" to="1088638458"/>
    <trip id="veh113" type="veh_passenger" depart="694.50" departLane="best" from="-1338769043#6" to="415362031#0"/>
    <trip id="veh115" type="veh_passenger" depart="706.79" departLane="best" from="9130541#2" to="-290619644#0"/>
    <trip id="veh116" type="veh_passenger" depart="712.94" departLane="best" from="586413246#14" to="415358466#2"/>
    <trip id="veh117" type="veh_passenger" depart="719.08" departLane="best" from="283536956#0" to="9150977#4"/>
    <trip id="veh118" type="veh_passenger" depart="725.23" departLane="best" from="31031717#1" to="-1044405760#3"/>
    <trip id="veh119" type="veh_passenger" depart="731.37" departLane="best" from="-586077896#0" to="-631653305#2"/>
    <trip id="veh120" type="veh_passenger" depart="737.52" departLane="best" departSpeed="max" from="341623766#0" to="9138488#12"/>
    <trip id="veh121" type="veh_passenger" depart="743.67" departLane="best" departSpeed="max" from="-210830412" to="180244645"/>
    <trip id="veh122" type="veh_passenger" depart="749.81" departLane="best" from="-586077896#1" to="277745441"/>
    <trip id="veh123" type="veh_passenger" depart="755.96" departLane="best" from="423654396" to="-371908690#1"/>
    <trip id="veh124" type="veh_passenger" depart="762.10" departLane="best" from="287145664#1" to="-568382083#3"/>
    <trip id="veh125" type="veh_passenger" depart="768.25" departLane="best" from="-1315070421#0" to="-828146450#0"/>
    <trip id="veh126" type="veh_passenger" depart="774.40" departLane="best" from="586413259#2" to="-180244636#8"/>
    <trip id="veh127" type="veh_passenger" depart="780.54" departLane="best" departSpeed="max" from="-9150977#22" to="586080834"/>
    <trip id="veh128" type="veh_passenger" depart="786.69" departLane="best" from="287145664#3" to="-568382083#1"/>
    <trip id="veh129" type="veh_passenger" depart="792.83" departLane="best" from="533664762" to="180244639#2"/>
    <trip id="veh130" type="veh_passenger" depart="798.98" departLane="best" from="-9151585#0" to="-1044405760#4"/>
    <trip id="veh131" type="veh_passenger" depart="805.13" departLane="best" from="-1338769044#0" to="-656443274#1"/>
    <trip id="veh132" type="veh_passenger" depart="811.27" departLane="best" from="9122370#2" to="-180244636#7"/>
    <trip id="veh133" type="veh_passenger" depart="817.42" departLane="best" from="586413246#15" to="276157215#3"/>
    <trip id="veh134" type="veh_passenger" depart="823.56" departLane="best" from="-287145656#2" to="-276157217"/>
    <trip id="veh135" type="veh_passenger" depart="829.71" departLane="best" from="-631611869#1" to="656443275"/>
    <trip id="veh136" type="veh_passenger" depart="835.86" departLane="best" from="-9119753#0" to="371908694#4"/>
    <trip id="veh137" type="veh_passenger" depart="842.00" departLane="best" from="-551576182" to="-267110730#2"/>
    <trip id="veh138" type="veh_passenger" depart="848.15" departLane="best" from="551574175#1" to="656443274#2"/>
    <trip id="veh139" type="veh_passenger" depart="854.29" departLane="best" departSpeed="max" from="-9147358#2" to="277745444"/>
    <trip id="veh140" type="veh_passenger" depart="860.44" departLane="best" from="-287145656#4" to="-9130541#3"/>
    <trip id="veh141" type="veh_passenger" depart="866.59" departLane="best" from="656443274#0" to="9148332#4"/>
    <trip id="veh142" type="veh_passenger" depart="872.73" departLane="best" from="586002129" to="656443274#1"/>
    <trip id="veh143" type="veh_passenger" depart="878.88" departLane="best" departSpeed="max" from="-1209313235" to="423728988"/>
    <trip id="veh144" type="veh_passenger" depart="885.02" departLane="best" from="-656443274#5" to="-9130541#4"/>
    <trip id="veh145" type="veh_passenger" depart="891.17" departLane="best" from="568370164" to="586413266#3"/>
    <trip id="veh146" type="veh_passenger" depart="897.32" departLane="best" from="586002129" to="586077896#1"/>
    <trip id="veh147" type="veh_passenger" depart="903.46" departLane="best" from="-551576182" to="276157215#0"/>
    <trip id="veh148" type="veh_passenger" depart="909.61" departLane="best" from="-656443274#3" to="586413256"/>
    <trip id="veh149" type="veh_passenger" depart="915.75" departLane="best" from="533665196#0" to="-568382083#2"/>
    <trip id="veh150" type="veh_passenger" depart="921.90" departLane="best" departSpeed="max" from="1090690719#0" to="656443274#0"/>
    <trip id="veh151" type="veh_passenger" depart="928.05" departLane="best" departSpeed="max" from="-1209313235" to="-343537871"/>
    <trip id="veh154" type="veh_passenger" depart="946.48" departLane="best" from="-9138488#3" to="276157215#3"/>
    <trip id="veh155" type="veh_passenger" depart="952.63" departLane="best" departSpeed="max" from="9148293" to="-341623766#3"/>
    <trip id="veh157" type="veh_passenger" depart="964.92" departLane="best" departSpeed="max" from="-210830412" to="9152018#0"/>
    <trip id="veh158" type="veh_passenger" depart="971.07" departLane="best" from="423728986" to="656443274#3"/>
    <trip id="veh159" type="veh_passenger" depart="977.21" departLane="best" from="-9138488#7" to="276157215#0"/>
    <trip id="veh160" type="veh_passenger" depart="983.36" departLane="best" from="-568373941#1" to="415358466#2"/>
    <trip id="veh161" type="veh_passenger" depart="989.51" departLane="best" from="1044405760#1" to="9129472"/>
    <trip id="veh162" type="veh_passenger" depart="995.65" departLane="best" from="533664762" to="-341623766#4"/>
    <trip id="veh163" type="veh_passenger" depart="1001.80" departLane="best" from="9127807" to="1338769044#0"/>
    <trip id="veh164" type="veh_passenger" depart="1007.94" departLane="best" departSpeed="max" from="341623766#0" to="-691528611"/>
    <trip id="veh165" type="veh_passenger" depart="1014.09" departLane="best" from="-656443273" to="586413246#14"/>
    <trip id="veh168" type="veh_passenger" depart="1032.53" departLane="best" from="-276157215#2" to="-9148332#3"/>
    <trip id="veh169" type="veh_passenger" depart="1038.67" departLane="best" from="9138488#5" to="-341624738#1"/>
    <trip id="veh170" type="veh_passenger" depart="1044.82" departLane="best" from="9122370#0" to="277745441"/>
    <trip id="veh171" type="veh_passenger" depart="1050.97" departLane="best" from="-586413246#8" to="-180244637#1"/>
    <trip id="veh172" type="veh_passenger" depart="1057.11" departLane="best" from="1044405760#0" to="-586413246#5"/>
    <trip id="veh173" type="veh_passenger" depart="1063.26" departLane="best" from="31031717#1" to="1090698273#1"/>
    <trip id="veh174" type="veh_passenger" depart="1069.40" departLane="best" from="1044405760#1" to="415362031#1"/>
    <trip id="veh175" type="veh_passenger" depart="1075.55" departLane="best" from="129601761" to="-691528611"/>
    <trip id="veh176" type="veh_passenger" depart="1081.70" departLane="best" from="565255792#1" to="-341623766#0"/>
    <trip id="veh177" type="veh_passenger" depart="1087.84" departLane="best" from="1339425865#0" to="1338769043#1"/>
    <trip id="veh178" type="veh_passenger" depart="1093.99" departLane="best" from="-586077896#0" to="533665196#1"/>
    <trip id="veh179" type="veh_passenger" depart="1100.14" departLane="best" from="341623766#4" to="-533665196#0"/>
    <trip id="veh180" type="veh_passenger" depart="1106.28" departLane="best" from="371908690#0" to="1315066558"/>
    <trip id="veh181" type="veh_passenger" depart="1112.43" departLane="best" from="-540665092#8" to="129601761"/>
    <trip id="veh182" type="veh_passenger" depart="1118.57" departLane="best" from="586413266#3" to="1338769044#0"/>
    <trip id="veh183" type="veh_passenger" depart="1124.72" departLane="best" from="-9148332#2" to="283536956#1"/>
    <trip id="veh184" type="veh_passenger" depart="1130.87" departLane="best" from="343537877" to="371908694#1"/>
    <trip id="veh185" type="veh_passenger" depart="1137.01" departLane="best" from="-1315071877#1" to="540665092#6"/>
    <trip id="veh186" type="veh_passenger" depart="1143.16" departLane="best" departSpeed="max" from="341623766#0" to="-1044405760#2"/>
    <trip id="veh187" type="veh_passenger" depart="1149.30" departLane="best" from="210830064" to="9150977#1"/>
    <trip id="veh189" type="veh_passenger" depart="1161.60" departLane="best" from="-1338769043#3" to="-1333430095#0"/>
    <trip id="veh190" type="veh_passenger" depart="1167.74" departLane="best" from="-551576182" to="586413246#14"/>
    <trip id="veh191" type="veh_passenger" depart="1173.89" departLane="best" from="1088638458" to="565255794"/>
    <trip id="veh192" type="veh_passenger" depart="1180.03" departLane="best" from="341623766#1" to="9151585#0"/>
    <trip id="veh193" type="veh_passenger" depart="1186.18" departLane="best" from="-276157215#8" to="9142394#0"/>
    <trip id="veh194" type="veh_passenger" depart="1192.33" departLane="best" from="828146450#0" to="277745441"/>
    <trip id="veh195" type="veh_passenger" depart="1198.47" departLane="best" from="423654396" to="-1333430094#3"/>
    <trip id="veh196" type="veh_passenger" depart="1204.62" departLane="best" from="828146451" to="-505368797#4"/>
    <trip id="veh197" type="veh_passenger" depart="1210.76" departLane="best" from="129601762#0" to="568373941#3"/>
    <trip id="veh198" type="veh_passenger" depart="1216.91" departLane="best" from="-540665092#9" to="-287145656#2"/>
    <trip id="veh199" type="veh_passenger" depart="1223.06" departLane="best" from="-287145656#4" to="586080833"/>
    <trip id="veh200" type="veh_passenger" depart="1229.20" departLane="best" from="-1338769044#1" to="-586413246#3"/>
    <trip id="veh201" type="veh_passenger" depart="1235.35" departLane="best" from="180244636#0" to="287145656#4"/>
    <trip id="veh202" type="veh_passenger" depart="1241.49" departLane="best" from="-540665092#11" to="371908694#0"/>
    <trip id="veh203" type="veh_passenger" depart="1247.64" departLane="best" from="-415362031#0" to="1338769043#4"/>
    <trip id="veh204" type="veh_passenger" depart="1253.79" departLane="best" departSpeed="max" from="-9147358#2" to="-180244636#3"/>
    <trip id="veh205" type="veh_passenger" depart="1259.93" departLane="best" from="-9148332#4" to="371908694#1"/>
    <trip id="veh206" type="veh_passenger" depart="1266.08" departLane="best" from="-9150977#1" to="-828146450#0"/>
    <trip id="veh207" type="veh_passenger" depart="1272.22" departLane="best" from="-276157215#1" to="371908694#1"/>
    <trip id="veh208" type="veh_passenger" depart="1278.37" departLane="best" from="-631611869#1" to="540665092#4"/>
    <trip id="veh209" type="veh_passenger" depart="1284.52" departLane="best" from="-9138488#15" to="-1044405760#2"/>
    <trip id="veh210" type="veh_passenger" depart="1290.66" departLane="best" from="-9119204" to="540665092#1"/>
    <trip id="veh211" type="veh_passenger" depart="1296.81" departLane="best" from="-631611869#0" to="9142394#5"/>
    <trip id="veh212" type="veh_passenger" depart="1302.95" departLane="best" from="-9148332#9" to="551574176#0"/>
    <trip id="veh213" type="veh_passenger" depart="1309.10" departLane="best" from="-180244637#1" to="277745441"/>
    <trip id="veh214" type="veh_passenger" depart="1315.25" departLane="best" from="505368797#3" to="415362031#4"/>
    <trip id="veh215" type="veh_passenger" depart="1321.39" departLane="best" from="9153734#1" to="1315066561"/>
    <trip id="veh216" type="veh_passenger" depart="1327.54" departLane="best" from="-656443274#6" to="-341635866"/>
    <trip id="veh217" type="veh_passenger" depart="1333.68" departLane="best" from="-9147358#1" to="-341623766#0"/>
    <trip id="veh218" type="veh_passenger" depart="1339.83" departLane="best" departSpeed="max" from="1090698273#0" to="-276157217"/>
    <trip id="veh219" type="veh_passenger" depart="1345.98" departLane="best" from="-287145656#2" to="1315066560"/>
    <trip id="veh221" type="veh_passenger" depart="1358.27" departLane="best" from="-1315066558" to="287145656#4"/>
    <trip id="veh222" type="veh_passenger" depart="1364.41" departLane="best" from="-276157215#6" to="1088638470"/>
    <trip id="veh223" type="veh_passenger" depart="1370.56" departLane="best" from="1333430094#3" to="9138488#15"/>
    <trip id="veh224" type="veh_passenger" depart="1376.71" departLane="best" from="-415362031#1" to="656443274#6"/>
    <trip id="veh225" type="veh_passenger" depart="1382.85" departLane="best" from="-540665092#4" to="-9138488#15"/>
    <trip id="veh226" type="veh_passenger" depart="1389.00" departLane="best" departSpeed="max" from="-1090698273#3" to="169152446#0"/>
    <trip id="veh227" type="veh_passenger" depart="1395.14" departLane="best" from="988304974" to="-9122810#0"/>
    <trip id="veh228" type="veh_passenger" depart="1401.29" departLane="best" from="31031717#0" to="540665092#1"/>
    <trip id="veh229" type="veh_passenger" depart="1407.44" departLane="best" from="9142394#0" to="343541421"/>
    <trip id="veh230" type="veh_passenger" depart="1413.58" departLane="best" departSpeed="max" from="-1090698273#3" to="-290619644#0"/>
    <trip id="veh231" type="veh_passenger" depart="1419.73" departLane="best" from="276157215#2" to="-341623766#3"/>
    <trip id="veh232" type="veh_passenger" depart="1425.87" departLane="best" departSpeed="max" from="273902600" to="415362031#4"/>
    <trip id="veh233" type="veh_passenger" depart="1432.02" departLane="best" from="-371908694#3" to="540665092#5"/>
    <trip id="veh234" type="veh_passenger" depart="1438.17" departLane="best" from="-290619644#2" to="277745441"/>
    <trip id="veh235" type="veh_passenger" depart="1444.31" departLane="best" from="-540665092#0" to="276157215#3"/>
    <trip id="veh236" type="veh_passenger" depart="1450.46" departLane="best" from="586077896#0" to="9147358#0"/>
    <trip id="veh237" type="veh_passenger" depart="1456.60" departLane="best" departSpeed="max" from="-210830412" to="1315066559"/>
    <trip id="veh238" type="veh_passenger" depart="1462.75" departLane="best" from="-656443273" to="-341624738#1"/>
    <trip id="veh240" type="veh_passenger" depart="1475.04" departLane="best" from="423654395" to="1338769044#1"/>
    <trip id="veh241" type="veh_passenger" depart="1481.19" departLane="best" from="343537877" to="283536956#0"/>
    <trip id="veh242" type="veh_passenger" depart="1487.33" departLane="best" departSpeed="max" from="-180244639#2" to="540665092#8"/>
    <trip id="veh243" type="veh_passenger" depart="1493.48" departLane="best" from="586413267#1" to="277745441"/>
    <trip id="veh244" type="veh_passenger" depart="1499.63" departLane="best" from="-273902602#1" to="9150977#22"/>
    <trip id="veh245" type="veh_passenger" depart="1505.77" departLane="best" from="551574175#1" to="-9122370#4"/>
    <trip id="veh246" type="veh_passenger" depart="1511.92" departLane="best" from="-9151585#1" to="-9137054#0"/>
    <trip id="veh247" type="veh_passenger" depart="1518.06" departLane="best" from="1333430095#0" to="-9119753#0"/>
    <trip id="veh249" type="veh_passenger" depart="1530.36" departLane="best" from="287145664#3" to="586077896#1"/>
    <trip id="veh250" type="veh_passenger" depart="1536.50" departLane="best" from="-415362031#0" to="9152018#2"/>
    <trip id="veh251" type="veh_passenger" depart="1542.65" departLane="best" from="-586077896#0" to="568377840#3"/>
    <trip id="veh252" type="veh_passenger" depart="1548.79" departLane="best" from="169152456" to="1315066559"/>
    <trip id="veh253" type="veh_passenger" depart="1554.94" departLane="best" from="-9153734#1" to="423728986"/>
    <trip id="veh254" type="veh_passenger" depart="1561.09" departLane="best" from="-586077896#0" to="586413246#2"/>
    <trip id="veh255" type="veh_passenger" depart="1567.23" departLane="best" from="586413246#0" to="-1339425865#1"/>
    <trip id="veh256" type="veh_passenger" depart="1573.38" departLane="best" from="1090690719#1" to="277745441"/>