<?xml version="1.0" encoding="UTF-8"?>

<!-- generated on 2025-03-02 09:02:45.923901 by osmWebWizard.py v1_21_0+0000-d7b3b481c43
<configuration>
    <net-file value="C:\Users\evans\Sumo\2025-03-02-09-02-35\osm.net.xml.gz"/>
    <output-trip-file value="C:\Users\evans\Sumo\2025-03-02-09-02-35\osm.truck.trips.xml"/>
    <route-file value="C:\Users\evans\Sumo\2025-03-02-09-02-35\osm.truck.rou.xml"/>
    <prefix value="truck"/>
    <trip-attributes value="departLane=&quot;best&quot;"/>
    <fringe-start-attributes value="departSpeed=&quot;max&quot;"/>
    <vehicle-class value="truck"/>
    <fringe-factor value="5"/>
    <vclass value="truck"/>
    <via-edge-types value="highway.motorway,highway.motorway_link,highway.trunk_link,highway.primary_link,highway.secondary_link,highway.tertiary_link"/>
    <min-distance value="600.0"/>
    <min-distance.fringe value="10.0"/>
    <remove-loops value="True"/>
    <validate value="True"/>
    <end value="86400.0"/>
    <insertion-density value="8.0"/>
</configuration>
-->

<!-- generated on 2025-03-02 09:02:45 by Eclipse SUMO duarouter Version 1.21.0
<duarouterConfiguration xmlns:xsi="http://www.w3.org/2001/XMLSchema-instance" xsi:noNamespaceSchemaLocation="http://sumo.dlr.de/xsd/duarouterConfiguration.xsd">

    <input>
        <net-file value="C:\Users\evans\Sumo\2025-03-02-09-02-35\osm.net.xml.gz"/>
        <route-files value="C:\Users\evans\Sumo\2025-03-02-09-02-35\osm.truck.trips.xml"/>
    </input>

    <output>
        <output-file value="C:\Users\evans\Sumo\2025-03-02-09-02-35\osm.truck.trips.xml.tmp"/>
        <alternatives-output value="NUL"/>
        <write-trips value="true"/>
    </output>

    <processing>
        <remove-loops value="true"/>
    </processing>

    <time>
        <begin value="0.0"/>
        <end value="86400.0"/>
    </time>

    <report>
        <no-warnings value="true"/>
        <ignore-errors value="true"/>
        <no-step-log value="true"/>
    </report>

</duarouterConfiguration>
-->

<routes xmlns:xsi="http://www.w3.org/2001/XMLSchema-instance" xsi:noNamespaceSchemaLocation="http://sumo.dlr.de/xsd/routes_file.xsd">
    <vType id="truck_truck" vClass="truck"/>
    <trip id="truck0" type="truck_truck" depart="0.00" departLane="best" from="551576182" to="-180244636#2"/>
    <trip id="truck1" type="truck_truck" depart="30.58" departLane="best" from="-586413246#3" to="-586077896#3"/>
    <trip id="truck2" type="truck_truck" depart="61.15" departLane="best" departSpeed="max" from="631653305" to="276157215#3"/>
    <trip id="truck3" type="truck_truck" depart="91.73" departLane="best" from="1339425865#0" to="-180244636#3"/>
    <trip id="truck4" type="truck_truck" depart="122.30" departLane="best" from="586077896#3" to="180244639#2"/>
    <trip id="truck5" type="truck_truck" depart="152.88" departLane="best" from="180244636#3" to="-568382083#0"/>
    <trip id="truck6" type="truck_truck" depart="183.45" departLane="best" from="586413246#17" to="565245613"/>
    <trip id="truck8" type="truck_truck" depart="244.60" departLane="best" from="-9151585#0" to="273902603"/>
    <trip id="truck10" type="truck_truck" depart="305.75" departLane="best" from="586413259#2" to="276157215#5"/>
    <trip id="truck11" type="truck_truck" depart="336.33" departLane="best" from="568382083#0" to="-180244637#0"/>
    <trip id="truck12" type="truck_truck" depart="366.90" departLane="best" departSpeed="max" from="-180244639#2" to="-586413246#0"/>
    <trip id="truck14" type="truck_truck" depart="428.05" departLane="best" from="-9151585#6" to="-540665092#2"/>
    <trip id="truck15" type="truck_truck" depart="458.63" departLane="best" from="565255792#2" to="9151585#2"/>
    <trip id="truck16" type="truck_truck" depart="489.20" departLane="best" from="656443273" to="-180244636#2"/>
    <trip id="truck17" type="truck_truck" depart="519.78" departLane="best" from="-586413246#18" to="-586413246#12"/>
    <trip id="truck18" type="truck_truck" depart="550.35" departLane="best" from="287145656#3" to="-586413246#16"/>
    <trip id="truck19" type="truck_truck" depart="580.93" departLane="best" from="-9151585#5" to="-586077896#1"/>
    <trip id="truck20" type="truck_truck" depart="611.50" departLane="best" from="-9152018#1" to="180244639#2"/>
    <trip id="truck21" type="truck_truck" depart="642.08" departLane="best" from="-180244652#3" to="-180244637#0"/>
    <trip id="truck22" type="truck_truck" depart="672.65" departLane="best" from="586413246#14" to="9152018#1"/>
    <trip id="truck23" type="truck_truck" depart="703.23" departLane="best" departSpeed="max" from="-180244639#2" to="-9129472"/>
    <trip id="truck24" type="truck_truck" depart="733.81" departLane="best" from="-9152018#1" to="180244652#3"/>
    <trip id="truck25" type="truck_truck" depart="764.38" departLane="best" from="-9151585#2" to="586413249#1"/>
    <trip id="truck27" type="truck_truck" depart="825.53" departLane="best" from="-276157215#4" to="-1339425865#1"/>
    <trip id="truck28" type="truck_truck" depart="856.11" departLane="best" from="180244636#3" to="9142394#0"/>
    <trip id="truck30" type="truck_truck" depart="917.26" departLane="best" from="586413254#1" to="-540665092#1"/>
    <trip id="truck31" type="truck_truck" depart="947.83" departLane="best" from="586413246#11" to="180244652#3"/>
    <trip id="truck32" type="truck_truck" depart="978.41" departLane="best" from="180244636#1" to="-656443274#3"/>
    <trip id="truck33" type="truck_truck" depart="1008.98" departLane="best" from="-586413254#0" to="180244639#1"/>
    <trip id="truck34" type="truck_truck" depart="1039.56" departLane="best" from="-180244652#2" to="180244639#0"/>
    <trip id="truck35" type="truck_truck" depart="1070.13" departLane="best" departSpeed="max" from="-180244639#2" to="586002131#0"/>
    <trip id="truck36" type="truck_truck" depart="1100.71" departLane="best" from="586077896#3" to="-276157224#1"/>
    <trip id="truck37" type="truck_truck" depart="1131.28" departLane="best" from="-180244639#0" to="273902603"/>
    <trip id="truck38" type="truck_truck" depart="1161.86" departLane="best" from="568382083#1" to="-586413249#1"/>
    <trip id="truck39" type="truck_truck" depart="1192.43" departLane="best" from="-9152018#0" to="-540665092#4"/>
    <trip id="truck40" type="truck_truck" depart="1223.01" departLane="best" from="180244636#0" to="180244645"/>
    <trip id="truck41" type="truck_truck" depart="1253.58" departLane="best" from="-276157215#6" to="-586077896#3"/>
    <trip id="truck42" type="truck_truck" depart="1284.16" departLane="best" from="-586413246#0" to="-586077896#1"/>
    <trip id="truck43" type="truck_truck" depart="1314.73" departLane="best" departSpeed="max" from="-180244639#2" to="-540665092#0"/>
    <trip id="truck44" type="truck_truck" depart="1345.31" departLane="best" from="586413246#11" to="551574176#0"/>
    <trip id="truck45" type="truck_truck" depart="1375.88" departLane="best" from="656443274#4" to="276157215#4"/>
    <trip id="truck46" type="truck_truck" depart="1406.46" departLane="best" from="180244637#1" to="-586077896#3"/>
    <trip id="truck47" type="truck_truck" depart="1437.04" departLane="best" from="-276157215#1" to="-1339425865#0"/>
    <trip id="truck48" type="truck_truck" depart="1467.61" departLane="best" from="1339425865#0" to="-180244636#4"/>
    <trip id="truck49" type="truck_truck" depart="1498.19" departLane="best" from="-9151585#5" to="-656443273"/>
    <trip id="truck50" type="truck_truck" depart="1528.76" departLane="best" from="586413259#2" to="-586413246#12"/>
    <trip id="truck51" type="truck_truck" depart="1559.34" departLane="best" from="-565255794" to="-180244636#0"/>
    <trip id="truck52" type="truck_truck" depart="1589.91" departLane="best" from="1339425865#0" to="-586413246#2"/>
    <trip id="truck53" type="truck_truck" depart="1620.49" departLane="best" from="586413246#14" to="-656443274#2"/>
    <trip id="truck54" type="truck_truck" depart="1651.06" departLane="best" from="180244636#1" to="586413249#1"/>
    <trip id="truck55" type="truck_truck" depart="1681.64" departLane="best" from="-9151585#1" to="-656443274#2"/>
    <trip id="truck56" type="truck_truck" depart="1712.21" departLane="best" from="586413254#1" to="-540665092#4"/>
    <trip id="truck57" type="truck_truck" depart="1742.79" departLane="best" from="180244645" to="-568382083#3"/>
    <trip id="truck58" type="truck_truck" depart="1773.36" departLane="best" from="-9142394#0" to="9152018#0"/>
    <trip id="truck60" type="truck_truck" depart="1834.51" departLane="best" departSpeed="max" from="276157224#0" to="-568382083#2"/>
    <trip id="truck61" type="truck_truck" depart="1865.09" departLane="best" from="-180244639#1" to="-276157217"/>
    <trip id="truck62" type="truck_truck" depart="1895.66" departLane="best" from="586413267#1" to="-586413246#12"/>
    <trip id="truck64" type="truck_truck" depart="1956.81" departLane="best" from="-276157215#5" to="-656443274#4"/>
    <trip id="truck65" type="truck_truck" depart="1987.39" departLane="best" departSpeed="max" from="-180244639#2" to="-568382083#3"/>
    <trip id="truck66" type="truck_truck" depart="2017.96" departLane="best" from="586413246#7" to="565255792#0"/>
    <trip id="truck67" type="truck_truck" depart="2048.54" departLane="best" departSpeed="max" from="533664762" to="9151585#6"/>
    <trip id="truck68" type="truck_truck" depart="2079.12" departLane="best" from="-276157215#3" to="273902603"/>
    <trip id="truck70" type="truck_truck" depart="2140.27" departLane="best" from="1339425865#0" to="-586413246#2"/>
    <trip id="truck71" type="truck_truck" depart="2170.84" departLane="best" departSpeed="max" from="-180244639#2" to="586413259#2"/>
    <trip id="truck73" type="truck_truck" depart="2231.99" departLane="best" departSpeed="max" from="631653305" to="-568382083#2"/>
    <trip id="truck74" type="truck_truck" depart="2262.57" departLane="best" from="-586413246#14" to="276157215#6"/>
    <trip id="truck75" type="truck_truck" depart="2293.14" departLane="best" from="586413246#11" to="565255792#0"/>
    <trip id="truck78" type="truck_truck" depart="2384.87" departLane="best" from="586413259#2" to="9151585#3"/>
    <trip id="truck79" type="truck_truck" depart="2415.44" departLane="best" from="180244636#2" to="565255794"/>
    <trip id="truck80" type="truck_truck" depart="2446.02" departLane="best" from="586413246#13" to="-276157224#1"/>
    <trip id="truck81" type="truck_truck" depart="2476.59" departLane="best" from="180244636#5" to="586413254#1"/>
    <trip id="truck83" type="truck_truck" depart="2537.74" departLane="best" from="551576182" to="9151585#3"/>
    <trip id="truck84" type="truck_truck" depart="2568.32" departLane="best" from="-9151585#4" to="273902603"/>
    <trip id="truck85" type="truck_truck" depart="2598.89" departLane="best" from="656443274#5" to="-276157224#1"/>
    <trip id="truck87" type="truck_truck" depart="2660.04" departLane="best" from="-9151585#0" to="-586413246#16"/>
    <trip id="truck88" type="truck_truck" depart="2690.62" departLane="best" from="-276157215#3" to="-1339425865#1"/>
    <trip id="truck89" type="truck_truck" depart="2721.19" departLane="best" departSpeed="max" from="533664762" to="180244639#2"/>
    <trip id="truck90" type="truck_truck" depart="2751.77" departLane="best" from="1315084524" to="-656443274#2"/>
    <trip id="truck91" type="truck_truck" depart="2782.35" departLane="best" from="656443273" to="586413246#6"/>
    <trip id="truck92" type="truck_truck" depart="2812.92" departLane="best" departSpeed="max" from="586002130#0" to="586413246#7"/>
    <trip id="truck93" type="truck_truck" depart="2843.50" departLane="best" from="287145656#0" to="9152018#0"/>
    <trip id="truck96" type="truck_truck" depart="2935.22" departLane="best" from="565255792#2" to="-180244636#4"/>
    <trip id="truck97" type="truck_truck" depart="2965.80" departLane="best" from="180244636#1" to="-568382083#3"/>
    <trip id="truck98" type="truck_truck" depart="2996.37" departLane="best" from="586413246#15" to="-551576182"/>
    <trip id="truck99" type="truck_truck" depart="3026.95" departLane="best" from="586413246#3" to="-568382083#3"/>
    <trip id="truck100" type="truck_truck" depart="3057.52" departLane="best" from="568382083#1" to="-180244636#2"/>
    <trip id="truck101" type="truck_truck" depart="3088.10" departLane="best" from="586413256" to="180244652#3"/>
    <trip id="truck102" type="truck_truck" depart="3118.67" departLane="best" from="568382083#0" to="565245613"/>
    <trip id="truck103" type="truck_truck" depart="3149.25" departLane="best" from="-180244652#2" to="-586413246#11"/>
    <trip id="truck104" type="truck_truck" depart="3179.82" departLane="best" from="565255792#5" to="9151585#6"/>
    <trip id="truck106" type="truck_truck" depart="3240.97" departLane="best" departSpeed="max" from="586002130#0" to="180244639#2"/>
    <trip id="truck107" type="truck_truck" depart="3271.55" departLane="best" from="586413246#6" to="273902603"/>
    <trip id="truck108" type="truck_truck" depart="3302.12" departLane="best" departSpeed="max" from="631653305" to="-568382083#1"/>
    <trip id="truck109" type="truck_truck" depart="3332.70" departLane="best" from="586413246#13" to="-540665092#1"/>
    <trip id="truck110" type="truck_truck" depart="3363.27" departLane="best" from="-586413246#2" to="-631653305"/>
    <trip id="truck111" type="truck_truck" depart="3393.85" departLane="best" from="-9152018#0" to="273902603"/>
    <trip id="truck112" type="truck_truck" depart="3424.42" departLane="best" from="-9152018#1" to="-568382083#2"/>
    <trip id="truck113" type="truck_truck" depart="3455.00" departLane="best" from="-9151585#0" to="-1339425865#0"/>
    <trip id="truck114" type="truck_truck" depart="3485.58" departLane="best" from="9129472" to="-568382083#3"/>
    <trip id="truck115" type="truck_truck" depart="3516.15" departLane="best" from="1315084524" to="-568382083#2"/>
    <trip id="truck117" type="truck_truck" depart="3577.30" departLane="best" from="-9151585#6" to="-540665092#4"/>
    <trip id="truck118" type="truck_truck" depart="3607.88" departLane="best" from="540665092#1" to="-180244636#3"/>
    <trip id="truck119" type="truck_truck" depart="3638.45" departLane="best" from="180244636#3" to="-540665092#2"/>
    <trip id="truck120" type="truck_truck" depart="3669.03" departLane="best" from="287145656#4" to="-180244636#3"/>
    <trip id="truck121" type="truck_truck" depart="3699.60" departLane="best" from="586077896#1" to="-9129472"/>
    <trip id="truck122" type="truck_truck" depart="3730.18" departLane="best" from="-586413246#15" to="276157215#2"/>
    <trip id="truck123" type="truck_truck" depart="3760.75" departLane="best" from="180244636#1" to="273902603"/>
    <trip id="truck124" type="truck_truck" depart="3791.33" departLane="best" from="-9152018#1" to="-656443274#1"/>
    <trip id="truck125" type="truck_truck" depart="3821.90" departLane="best" from="9129472" to="-568382083#0"/>
    <trip id="truck126" type="truck_truck" depart="3852.48" departLane="best" from="180244636#1" to="-540665092#1"/>
    <trip id="truck128" type="truck_truck" depart="3913.63" departLane="best" from="-9142394#1" to="9151585#2"/>
    <trip id="truck129" type="truck_truck" depart="3944.20" departLane="best" from="568382083#3" to="276157215#0"/>
    <trip id="truck131" type="truck_truck" depart="4005.35" departLane="best" from="586413246#12" to="-656443274#0"/>
    <trip id="truck132" type="truck_truck" depart="4035.93" departLane="best" from="-276157215#1" to="-656443273"/>
    <trip id="truck133" type="truck_truck" depart="4066.50" departLane="best" from="-276157215#3" to="9142394#1"/>
    <trip id="truck134" type="truck_truck" depart="4097.08" departLane="best" from="540665092#4" to="586413246#2"/>
    <trip id="truck135" type="truck_truck" depart="4127.65" departLane="best" departSpeed="max" from="586002130#0" to="9151585#0"/>
    <trip id="truck136" type="truck_truck" depart="4158.23" departLane="best" from="180244628" to="565255792#7"/>
    <trip id="truck137" type="truck_truck" depart="4188.81" departLane="best" from="-586413246#18" to="-586413246#7"/>
    <trip id="truck140" type="truck_truck" depart="4280.53" departLane="best" from="586077896#0" to="-586413246#11"/>
    <trip id="truck143" type="truck_truck" depart="4372.26" departLane="best" from="-180244652#0" to="586413246#1"/>
    <trip id="truck144" type="truck_truck" depart="4402.83" departLane="best" from="-276157215#0" to="-586077896#1"/>
    <trip id="truck146" type="truck_truck" depart="4463.98" departLane="best" departSpeed="max" from="423654395" to="-180244636#6"/>
    <trip id="truck147" type="truck_truck" depart="4494.56" departLane="best" from="-586413246#14" to="-276157224#1"/>
    <trip id="truck148" type="truck_truck" depart="4525.13" departLane="best" from="565255794" to="-276157224#1"/>
    <trip id="truck149" type="truck_truck" depart="4555.71" departLane="best" from="-9151585#3" to="180244652#2"/>
    <trip id="truck150" type="truck_truck" depart="4586.28" departLane="best" from="568382083#0" to="-586080837"/>
    <trip id="truck151" type="truck_truck" depart="4616.86" departLane="best" from="540665092#3" to="-180244636#0"/>
    <trip id="truck152" type="truck_truck" depart="4647.43" departLane="best" departSpeed="max" from="276157224#0" to="-586413246#18"/>
    <trip id="truck153" type="truck_truck" depart="4678.01" departLane="best" from="-9151585#2" to="273902603"/>
    <trip id="truck155" type="truck_truck" depart="4739.16" departLane="best" from="586413259#3" to="180244639#1"/>
    <trip id="truck156" type="truck_truck" depart="4769.73" departLane="best" from="586413263#1" to="276157215#4"/>
    <trip id="truck157" type="truck_truck" depart="4800.31" departLane="best" from="180244637#0" to="169152446#0"/>
    <trip id="truck158" type="truck_truck" depart="4830.89" departLane="best" from="540665092#4" to="-180244637#1"/>
    <trip id="truck159" type="truck_truck" depart="4861.46" departLane="best" from="656443274#5" to="180244637#0"/>
    <trip id="truck160" type="truck_truck" depart="4892.04" departLane="best" departSpeed="max" from="-180244639#2" to="531094133#1"/>
    <trip id="truck161" type="truck_truck" depart="4922.61" departLane="best" from="-180244639#0" to="-540665092#0"/>
    <trip id="truck162" type="truck_truck" depart="4953.19" departLane="best" from="287145656#3" to="-586413246#8"/>
    <trip id="truck163" type="truck_truck" depart="4983.76" departLane="best" from="586413246#14" to="-586077896#3"/>
    <trip id="truck164" type="truck_truck" depart="5014.34" departLane="best" from="180244636#1" to="586413249#1"/>
    <trip id="truck165" type="truck_truck" depart="5044.91" departLane="best" from="540665092#2" to="276157215#0"/>
    <trip id="truck166" type="truck_truck" depart="5075.49" departLane="best" from="1315084524" to="-180244636#0"/>
    <trip id="truck167" type="truck_truck" depart="5106.06" departLane="best" from="568382083#0" to="-180244636#1"/>
    <trip id="truck170" type="truck_truck" depart="5197.79" departLane="best" from="586413246#5" to="180244652#3"/>
    <trip id="truck171" type="truck_truck" depart="5228.36" departLane="best" from="540665092#0" to="-586413249#0"/>
    <trip id="truck172" type="truck_truck" depart="5258.94" departLane="best" from="656443274#6" to="180244639#2"/>
    <trip id="truck173" type="truck_truck" depart="5289.51" departLane="best" from="-180244652#2" to="276157215#1"/>
    <trip id="truck174" type="truck_truck" depart="5320.09" departLane="best" from="180244636#6" to="-1339425865#0"/>
    <trip id="truck175" type="truck_truck" depart="5350.66" departLane="best" from="656443274#1" to="-586413246#13"/>
    <trip id="truck176" type="truck_truck" depart="5381.24" departLane="best" from="-180244652#3" to="9151585#0"/>
    <trip id="truck178" type="truck_truck" depart="5442.39" departLane="best" from="180244637#0" to="-540665092#4"/>
    <trip id="truck180" type="truck_truck" depart="5503.54" departLane="best" from="-180244652#2" to="276157215#4"/>
    <trip id="truck181" type="truck_truck" depart="5534.12" departLane="best" from="-586413246#6" to="-656443275"/>
    <trip id="truck182" type="truck_truck" depart="5564.69" departLane="best" from="586413246#2" to="273902603"/>
    <trip id="truck183" type="truck_truck" depart="5595.27" departLane="best" from="180244636#4" to="531094133#1"/>
    <trip id="truck184" type="truck_truck" depart="5625.84" departLane="best" from="656443274#1" to="9151585#2"/>
    <trip id="truck185" type="truck_truck" depart="5656.42" departLane="best" from="-9151585#6" to="551574176#0"/>
    <trip id="truck186" type="truck_truck" depart="5686.99" departLane="best" departSpeed="max" from="276157224#0" to="-656443274#3"/>
    <trip id="truck187" type="truck_truck" depart="5717.57" departLane="best" from="180244636#0" to="565245613"/>
    <trip id="truck189" type="truck_truck" depart="5778.72" departLane="best" from="-9152018#0" to="-656443273"/>
    <trip id="truck190" type="truck_truck" depart="5809.29" departLane="best" from="180244636#5" to="-276157224#1"/>
    <trip id="truck191" type="truck_truck" depart="5839.87" departLane="best" from="568382083#3" to="180244639#2"/>
    <trip id="truck192" type="truck_truck" depart="5870.44" departLane="best" departSpeed="max" from="276157224#0" to="9142394#0"/>
    <trip id="truck193" type="truck_truck" depart="5901.02" departLane="best" from="656443274#1" to="180244639#2"/>
    <trip id="truck194" type="truck_truck" depart="5931.59" departLane="best" from="-9152018#1" to="-656443274#4"/>
    <trip id="truck195" type="truck_truck" depart="5962.17" departLane="best" from="-276157215#1" to="586413246#17"/>
    <trip id="truck196" type="truck_truck" depart="5992.74" departLane="best" departSpeed="max" from="423654395" to="9152018#1"/>
    <trip id="truck197" type="truck_truck" depart="6023.32" departLane="best" departSpeed="max" from="276157224#0" to="-656443274#0"/>
    <trip id="truck198" type="truck_truck" depart="6053.89" departLane="best" departSpeed="max" from="276157224#0" to="273902603"/>
    <trip id="truck199" type="truck_truck" depart="6084.47" departLane="best" from="180244636#4" to="-631653305"/>
    <trip id="truck200" type="truck_truck" depart="6115.04" departLane="best" departSpeed="max" from="423654395" to="-586413246#0"/>
    <trip id="truck201" type="truck_truck" depart="6145.62" departLane="best" from="586413246#2" to="9142394#0"/>
    <trip id="truck203" type="truck_truck" depart="6206.77" departLane="best" departSpeed="max" from="586002130#0" to="9151585#5"/>
    <trip id="truck204" type="truck_truck" depart="6237.35" departLane="best" from="565255792#1" to="586413246#7"/>
    <trip id="truck205" type="truck_truck" depart="6267.92" departLane="best" from="586413263#1" to="-180244636#5"/>
    <trip id="truck206" type="truck_truck" depart="6298.50" departLane="best" departSpeed="max" from="-180244639#2" to="-540665092#0"/>
    <trip id="truck207" type="truck_truck" depart="6329.07" departLane="best" from="656443274#1" to="9152018#1"/>
    <trip id="truck208" type="truck_truck" depart="6359.65" departLane="best" from="-276157215#1" to="-540665092#0"/>
    <trip id="truck209" type="truck_truck" depart="6390.22" departLane="best" from="586413263#1" to="-586080837"/>
    <trip id="truck211" type="truck_truck" depart="6451.37" departLane="best" from="-586413246#7" to="-656443275"/>
    <trip id="truck212" type="truck_truck" depart="6481.95" departLane="best" from="287145656#4" to="586413246#1"/>
    <trip id="truck213" type="truck_truck" depart="6512.52" departLane="best" from="540665092#1" to="276157215#1"/>
    <trip id="truck215" type="truck_truck" depart="6573.67" departLane="best" from="586413246#12" to="-656443273"/>
    <trip id="truck217" type="truck_truck" depart="6634.82" departLane="best" from="1339425865#1" to="-586413246#13"/>
    <trip id="truck219" type="truck_truck" depart="6695.97" departLane="best" from="656443275" to="-276157217"/>
    <trip id="truck220" type="truck_truck" depart="6726.55" departLane="best" from="551576182" to="9152018#1"/>
    <trip id="truck221" type="truck_truck" depart="6757.12" departLane="best" departSpeed="max" from="423654395" to="276157215#4"/>
    <trip id="truck222" type="truck_truck" depart="6787.70" departLane="best" from="-9151585#3" to="551574176#0"/>
    <trip id="truck224" type="truck_truck" depart="6848.85" departLane="best" from="565255792#3" to="586413246#4"/>
    <trip id="truck225" type="truck_truck" depart="6879.42" departLane="best" from="565255792#0" to="-586413249#0"/>
    <trip id="truck226" type="truck_truck" depart="6910.00" departLane="best" from="180244636#0" to="276157215#6"/>
    <trip id="truck227" type="truck_truck" depart="6940.58" departLane="best" from="-586413246#8" to="-568382083#2"/>
    <trip id="truck228" type="truck_truck" depart="6971.15" departLane="best" from="276157217" to="-656443273"/>
    <trip id="truck229" type="truck_truck" depart="7001.73" departLane="best" from="656443274#5" to="-276157224#1"/>
    <trip id="truck230" type="truck_truck" depart="7032.30" departLane="best" from="-9151585#0" to="-287145656#4"/>
    <trip id="truck231" type="truck_truck" depart="7062.88" departLane="best" from="-9151585#1" to="586413249#1"/>
    <trip id="truck232" type="truck_truck" depart="7093.45" departLane="best" departSpeed="max" from="586002130#0" to="9151585#4"/>
    <trip id="truck233" type="truck_truck" depart="7124.03" departLane="best" from="-9151585#1" to="586413246#13"/>
    <trip id="truck234" type="truck_truck" depart="7154.60" departLane="best" departSpeed="max" from="-9142394#1" to="586413246#1"/>
    <trip id="truck235" type="truck_truck" depart="7185.18" departLane="best" from="180244636#0" to="273902603"/>
    <trip id="truck236" type="truck_truck" depart="7215.75" departLane="best" from="180244636#4" to="551574176#0"/>
    <trip id="truck237" type="truck_truck" depart="7246.33" departLane="best" from="586413246#4" to="-656443274#6"/>
    <trip id="truck238" type="truck_truck" depart="7276.90" departLane="best" from="180244636#2" to="586413259#3"/>
    <trip id="truck240" type="truck_truck" depart="7338.05" departLane="best" from="-586413249#1" to="180244639#1"/>
    <trip id="truck241" type="truck_truck" depart="7368.63" departLane="best" from="-276157215#1" to="586413259#3"/>
    <trip id="truck242" type="truck_truck" depart="7399.20" departLane="best" from="287145656#4" to="-180244636#1"/>
    <trip id="truck243" type="truck_truck" depart="7429.78" departLane="best" from="586413266#1" to="-568382083#1"/>
    <trip id="truck244" type="truck_truck" depart="7460.35" departLane="best" from="656443275" to="9152018#0"/>
    <trip id="truck245" type="truck_truck" depart="7490.93" departLane="best" from="586002130#1" to="-540665092#2"/>
    <trip id="truck246" type="truck_truck" depart="7521.50" departLane="best" from="-180244652#0" to="9151585#5"/>
    <trip id="truck247" type="truck_truck" depart="7552.08" departLane="best" from="9129472" to="-180244636#4"/>
    <trip id="truck248" type="truck_truck" depart="7582.66" departLane="best" departSpeed="max" from="-9142394#1" to="-586080837"/>
    <trip id="truck249" type="truck_truck" depart="7613.23" departLane="best" departSpeed="max" from="-9142394#1" to="9151585#2"/>
    <trip id="truck250" type="truck_truck" depart="7643.81" departLane="best" from="565255794" to="-276157224#1"/>
    <trip id="truck251" type="truck_truck" depart="7674.38" departLane="best" from="-586413249#0" to="-180244636#1"/>
    <trip id="truck252" type="truck_truck" depart="7704.96" departLane="best" departSpeed="max" from="533664762" to="-180244636#1"/>
    <trip id="truck253" type="truck_truck" depart="7735.53" departLane="best" departSpeed="max" from="-180244639#2" to="586002131#1"/>
    <trip id="truck256" type="truck_truck" depart="7827.26" departLane="best" from="565255792#4" to="-180244636#3"/>
    <trip id="truck257" type="truck_truck" depart="7857.83" departLane="best" from="586413246#11" to="-631653305"/>
    <trip id="truck258" type="truck_truck" depart="7888.41" departLane="best" from="540665092#2" to="180244639#0"/>
    <trip id="truck259" type="truck_truck" depart="7918.98" departLane="best" from="586002130#1" to="180244652#2"/>
    <trip id="truck261" type="truck_truck" depart="7980.13" departLane="best" from="-276157215#3" to="180244639#2"/>
    <trip id="truck263" type="truck_truck" depart="8041.28" departLane="best" from="-9151585#0" to="180244652#0"/>
    <trip id="truck265" type="truck_truck" depart="8102.43" departLane="best" departSpeed="max" from="631653305" to="276157215#0"/>
    <trip id="truck266" type="truck_truck" depart="8133.01" departLane="best" departSpeed="max" from="-180244639#2" to="-586413246#2"/>
    <trip id="truck267" type="truck_truck" depart="8163.58" departLane="best" from="656443274#2" to="9152018#0"/>
    <trip id="truck268" type="truck_truck" depart="8194.16" departLane="best" from="276157217" to="-180244636#1"/>
    <trip id="truck269" type="truck_truck" depart="8224.73" departLane="best" departSpeed="max" from="533664762" to="276157215#6"/>
    <trip id="truck270" type="truck_truck" depart="8255.31" departLane="best" from="568382083#0" to="586413246#7"/>
    <trip id="truck271" type="truck_truck" depart="8285.89" departLane="best" from="656443274#5" to="-180244636#1"/>
    <trip id="truck272" type="truck_truck" depart="8316.46" departLane="best" from="-276157215#0" to="-568382083#0"/>
    <trip id="truck273" type="truck_truck" depart="8347.04" departLane="best" departSpeed="max" from="423654395" to="276157215#1"/>
    <trip id="truck274" type="truck_truck" depart="8377.61" departLane="best" from="656443274#3" to="-276157224#1"/>
    <trip id="truck275" type="truck_truck" depart="8408.19" departLane="best" departSpeed="max" from="586002130#0" to="9151585#1"/>
    <trip id="truck276" type="truck_truck" depart="8438.76" departLane="best" departSpeed="max" from="423654395" to="-568382083#3"/>