<?xml version="1.0" encoding="UTF-8"?>

<!-- generated on 2025-03-02 09:02:43.473312 by osmWebWizard.py v1_21_0+0000-d7b3b481c43
<configuration>
    <net-file value="C:\Users\evans\Sumo\2025-03-02-09-02-35\osm.net.xml.gz"/>
    <additional-files value="C:\Users\evans\Sumo\2025-03-02-09-02-35\osm_stops.add.xml,C:\Users\evans\Sumo\2025-03-02-09-02-35\osm_pt.rou.xml"/>
    <output-trip-file value="C:\Users\evans\Sumo\2025-03-02-09-02-35\osm.pedestrian.trips.xml"/>
    <route-file value="C:\Users\evans\Sumo\2025-03-02-09-02-35\osm.pedestrian.rou.xml"/>
    <persontrips value="True"/>
    <persontrip.walk-opposite-factor value="0.8"/>
    <prefix value="ped"/>
    <trip-attributes value="modes=&quot;public&quot;"/>
    <vehicle-class value="pedestrian"/>
    <fringe-factor value="1"/>
    <end value="86400.0"/>
    <insertion-density value="10.0"/>
    <duarouter-weights.tls-penalty value="20"/>
</configuration>
-->

<routes xmlns:xsi="http://www.w3.org/2001/XMLSchema-instance" xsi:noNamespaceSchemaLocation="http://sumo.dlr.de/xsd/routes_file.xsd">
    <vType id="ped_pedestrian" vClass="pedestrian"/>
    <person id="ped0" depart="0.00" type="ped_pedestrian">
        <personTrip from="225485353#3" to="-183191745#0" modes="public"/>
    </person>
    <person id="ped1" depart="8.80" type="ped_pedestrian">
        <personTrip from="-837693137" to="-563620305" modes="public"/>
    </person>
    <person id="ped2" depart="17.60" type="ped_pedestrian">
        <personTrip from="372746863" to="258842238#2" modes="public"/>
    </person>
    <person id="ped3" depart="26.40" type="ped_pedestrian">
        <personTrip from="563620261" to="-415361890#0" modes="public"/>
    </person>
    <person id="ped4" depart="35.19" type="ped_pedestrian">
        <personTrip from="225466099#2" to="-183191792#4" modes="public"/>
    </person>
    <person id="ped5" depart="43.99" type="ped_pedestrian">
        <personTrip from="-563620286" to="225466137#5" modes="public"/>
    </person>
    <person id="ped6" depart="52.79" type="ped_pedestrian">
        <personTrip from="-183191792#0" to="-563602686#0" modes="public"/>
    </person>
    <person id="ped7" depart="61.59" type="ped_pedestrian">
        <personTrip from="225485362#1" to="225470252#5" modes="public"/>
    </person>
    <person id="ped8" depart="70.39" type="ped_pedestrian">
        <personTrip from="-563620287#1" to="225473463" modes="public"/>
    </person>
    <person id="ped9" depart="79.19" type="ped_pedestrian">
        <personTrip from="561883408#0" to="-1121887296" modes="public"/>
    </person>
    <person id="ped10" depart="87.98" type="ped_pedestrian">
        <personTrip from="561883403" to="335765986#3" modes="public"/>
    </person>
    <person id="ped11" depart="96.78" type="ped_pedestrian">
        <personTrip from="180244626#3" to="-563602500" modes="public"/>
    </person>
    <person id="ped12" depart="105.58" type="ped_pedestrian">
        <personTrip from="586077896#1" to="169152446#0" modes="public"/>
    </person>
    <person id="ped13" depart="114.38" type="ped_pedestrian">
        <personTrip from="-423697246#0" to="-425379238" modes="public"/>
    </person>
    <person id="ped14" depart="123.18" type="ped_pedestrian">
        <personTrip from="563602539" to="225485325#1" modes="public"/>
    </person>
    <person id="ped15" depart="131.98" type="ped_pedestrian">
        <personTrip from="561883404" to="372707393" modes="public"/>
    </person>
    <person id="ped16" depart="140.77" type="ped_pedestrian">
        <personTrip from="225470245#2" to="778437842#0" modes="public"/>
    </person>
    <person id="ped17" depart="149.57" type="ped_pedestrian">
        <personTrip from="225446893#2" to="225470262#0" modes="public"/>
    </person>
    <person id="ped18" depart="158.37" type="ped_pedestrian">
        <personTrip from="563602496#1" to="225485336#4" modes="public"/>
    </person>
    <person id="ped19" depart="167.17" type="ped_pedestrian">
        <personTrip from="563602635" to="225470359#1" modes="public"/>
    </person>
    <person id="ped20" depart="175.97" type="ped_pedestrian">
        <personTrip from="335765990#4" to="-258844487#0" modes="public"/>
    </person>
    <person id="ped21" depart="184.77" type="ped_pedestrian">
        <personTrip from="-563620312" to="1050574261#0" modes="public"/>
    </person>
    <person id="ped22" depart="193.56" type="ped_pedestrian">
        <personTrip from="-372715931#1" to="-563620322" modes="public"/>
    </person>
    <person id="ped23" depart="202.36" type="ped_pedestrian">
        <personTrip from="-425380524" to="-9122002" modes="public"/>
    </person>
    <person id="ped24" depart="211.16" type="ped_pedestrian">
        <personTrip from="225485350#3" to="183191792#2" modes="public"/>
    </person>
    <person id="ped25" depart="219.96" type="ped_pedestrian">
        <personTrip from="225446890" to="-563620266" modes="public"/>
    </person>
    <person id="ped26" depart="228.76" type="ped_pedestrian">
        <personTrip from="-737722158#0" to="563620382" modes="public"/>
    </person>
    <person id="ped27" depart="237.56" type="ped_pedestrian">
        <personTrip from="225485361#5" to="225485330#1" modes="public"/>
    </person>
    <person id="ped28" depart="246.36" type="ped_pedestrian">
        <personTrip from="-563602539" to="372398473#1" modes="public"/>
    </person>
    <person id="ped29" depart="255.15" type="ped_pedestrian">
        <personTrip from="-563602520" to="225446893#3" modes="public"/>
    </person>
    <person id="ped30" depart="263.95" type="ped_pedestrian">
        <personTrip from="837196488" to="225485354" modes="public"/>
    </person>
    <person id="ped31" depart="272.75" type="ped_pedestrian">
        <personTrip from="225470264#1" to="276157215#1" modes="public"/>
    </person>
    <person id="ped32" depart="281.55" type="ped_pedestrian">
        <personTrip from="563602528#0" to="440267648#3" modes="public"/>
    </person>
    <person id="ped33" depart="290.35" type="ped_pedestrian">
        <personTrip from="-563620314" to="-210835968" modes="public"/>
    </person>
    <person id="ped34" depart="299.15" type="ped_pedestrian">
        <personTrip from="1134398602" to="-737722158#1" modes="public"/>
    </person>
    <person id="ped35" depart="307.94" type="ped_pedestrian">
        <personTrip from="-563620270#0" to="568382081" modes="public"/>
    </person>
    <person id="ped36" depart="316.74" type="ped_pedestrian">
        <personTrip from="563602658" to="1134398601#2" modes="public"/>
    </person>
    <person id="ped37" depart="325.54" type="ped_pedestrian">
        <personTrip from="225486065#0" to="225466081#2" modes="public"/>
    </person>
    <person id="ped38" depart="334.34" type="ped_pedestrian">
        <personTrip from="563620318" to="225466116" modes="public"/>
    </person>
    <person id="ped39" depart="343.14" type="ped_pedestrian">
        <personTrip from="-656443274#5" to="-563620362" modes="public"/>
    </person>
    <person id="ped40" depart="351.94" type="ped_pedestrian">
        <personTrip from="225470265#3" to="-656443274#3" modes="public"/>
    </person>
    <person id="ped41" depart="360.73" type="ped_pedestrian">
        <personTrip from="225473223#1" to="563620273" modes="public"/>
    </person>
    <person id="ped42" depart="369.53" type="ped_pedestrian">
        <personTrip from="225466083#1" to="-563620287#0" modes="public"/>
    </person>
    <person id="ped43" depart="378.33" type="ped_pedestrian">
        <personTrip from="920874877#3" to="225470234#2" modes="public"/>
    </person>
    <person id="ped44" depart="387.13" type="ped_pedestrian">
        <personTrip from="-415361892#0" to="-258844487#2" modes="public"/>
    </person>
    <person id="ped45" depart="395.93" type="ped_pedestrian">
        <personTrip from="-505368795" to="225485346#1" modes="public"/>
    </person>
    <person id="ped46" depart="404.73" type="ped_pedestrian">
        <personTrip from="543914344#1" to="225466099#2" modes="public"/>
    </person>
    <person id="ped47" depart="413.52" type="ped_pedestrian">
        <personTrip from="-335765986#4" to="225446899#0" modes="public"/>
    </person>
    <person id="ped48" depart="422.32" type="ped_pedestrian">
        <personTrip from="920874877#1" to="225470243#2" modes="public"/>
    </person>
    <person id="ped49" depart="431.12" type="ped_pedestrian">
        <personTrip from="656443276" to="563602634" modes="public"/>
    </person>
    <person id="ped50" depart="439.92" type="ped_pedestrian">
        <personTrip from="-1339425865#1" to="353960850" modes="public"/>
    </person>
    <person id="ped51" depart="448.72" type="ped_pedestrian">
        <personTrip from="258844487#2" to="225470245#3" modes="public"/>
    </person>
    <person id="ped52" depart="457.52" type="ped_pedestrian">
        <personTrip from="-656443275" to="225485355" modes="public"/>
    </person>
    <person id="ped53" depart="466.31" type="ped_pedestrian">
        <personTrip from="-540665092#0" to="225466103" modes="public"/>
    </person>
    <person id="ped54" depart="475.11" type="ped_pedestrian">
        <personTrip from="225466114#0" to="585995065#1" modes="public"/>
    </person>
    <person id="ped55" depart="483.91" type="ped_pedestrian">
        <personTrip from="563602658" to="-656443274#4" modes="public"/>
    </person>
    <person id="ped56" depart="492.71" type="ped_pedestrian">
        <personTrip from="225466137#0" to="-563602635" modes="public"/>
    </person>
    <person id="ped57" depart="501.51" type="ped_pedestrian">
        <personTrip from="563620312" to="563602650#1" modes="public"/>
    </person>
    <person id="ped58" depart="510.31" type="ped_pedestrian">
        <personTrip from="1050574279#5" to="225485353#3" modes="public"/>
    </person>
    <person id="ped59" depart="519.11" type="ped_pedestrian">
        <personTrip from="225485330#1" to="-563602489#0" modes="public"/>
    </person>
    <person id="ped60" depart="527.90" type="ped_pedestrian">
        <personTrip from="425379238" to="225470250#0" modes="public"/>
    </person>
    <person id="ped61" depart="536.70" type="ped_pedestrian">
        <personTrip from="505368803#1" to="225470244#1" modes="public"/>
    </person>
    <person id="ped62" depart="545.50" type="ped_pedestrian">
        <personTrip from="-1020412074" to="1134398609" modes="public"/>
    </person>
    <person id="ped63" depart="554.30" type="ped_pedestrian">
        <personTrip from="-180244626#3" to="563620352#1" modes="public"/>
    </person>
    <person id="ped64" depart="563.10" type="ped_pedestrian">
        <personTrip from="563602666#1" to="563602502" modes="public"/>
    </person>
    <person id="ped65" depart="571.90" type="ped_pedestrian">
        <personTrip from="1134398598" to="-335765983#0" modes="public"/>
    </person>
    <person id="ped66" depart="580.69" type="ped_pedestrian">
        <personTrip from="563602665#1" to="585995063#3" modes="public"/>
    </person>
    <person id="ped67" depart="589.49" type="ped_pedestrian">
        <personTrip from="-415361889#0" to="225466127#1" modes="public"/>
    </person>
    <person id="ped68" depart="598.29" type="ped_pedestrian">
        <personTrip from="-372376369#0" to="425377800#1" modes="public"/>
    </person>
    <person id="ped69" depart="607.09" type="ped_pedestrian">
        <personTrip from="425379565" to="-551576182" modes="public"/>
    </person>
    <person id="ped70" depart="615.89" type="ped_pedestrian">
        <personTrip from="225466124#10" to="225470258#0" modes="public"/>
    </person>
    <person id="ped71" depart="624.69" type="ped_pedestrian">
        <personTrip from="-656443274#5" to="563602652" modes="public"/>
    </person>
    <person id="ped72" depart="633.48" type="ped_pedestrian">
        <personTrip from="225466100#0" to="-563620271" modes="public"/>
    </person>
    <person id="ped73" depart="642.28" type="ped_pedestrian">
        <personTrip from="225470250#0" to="372707393" modes="public"/>
    </person>
    <person id="ped74" depart="651.08" type="ped_pedestrian">
        <personTrip from="-563616188#0" to="1134398600#3" modes="public"/>
    </person>
    <person id="ped75" depart="659.88" type="ped_pedestrian">
        <personTrip from="920874877#0" to="225485362#1" modes="public"/>
    </person>
    <person id="ped76" depart="668.68" type="ped_pedestrian">
        <personTrip from="225466107#0" to="225470236#7" modes="public"/>
    </person>
    <person id="ped77" depart="677.48" type="ped_pedestrian">
        <personTrip from="-543914346#1" to="-563620308" modes="public"/>
    </person>
    <person id="ped78" depart="686.27" type="ped_pedestrian">
        <personTrip from="180244626#1" to="225473462" modes="public"/>
    </person>
    <person id="ped79" depart="695.07" type="ped_pedestrian">
        <personTrip from="-563620320#0" to="-563620287#1" modes="public"/>
    </person>
    <person id="ped80" depart="703.87" type="ped_pedestrian">
        <personTrip from="-372396764#0" to="225485347#2" modes="public"/>
    </person>
    <person id="ped81" depart="712.67" type="ped_pedestrian">
        <personTrip from="-563620314" to="563620287#0" modes="public"/>
    </person>
    <person id="ped82" depart="721.47" type="ped_pedestrian">
        <personTrip from="563602575#3" to="-372376369#1" modes="public"/>
    </person>
    <person id="ped83" depart="730.27" type="ped_pedestrian">
        <personTrip from="-563620337" to="225571729#0" modes="public"/>
    </person>
    <person id="ped84" depart="739.07" type="ped_pedestrian">
        <personTrip from="-563620277" to="-561883403" modes="public"/>
    </person>
    <person id="ped85" depart="747.86" type="ped_pedestrian">
        <personTrip from="563620380" to="225470357#1" modes="public"/>
    </person>
    <person id="ped86" depart="756.66" type="ped_pedestrian">
        <personTrip from="225466123#3" to="543821135" modes="public"/>
    </person>
    <person id="ped87" depart="765.46" type="ped_pedestrian">
        <personTrip from="561883404" to="-563602656" modes="public"/>
    </person>
    <person id="ped88" depart="774.26" type="ped_pedestrian">
        <personTrip from="-425379238" to="225466102#4" modes="public"/>
    </person>
    <person id="ped89" depart="783.06" type="ped_pedestrian">
        <personTrip from="225466100#1" to="225466120#1" modes="public"/>
    </person>
    <person id="ped90" depart="791.86" type="ped_pedestrian">
        <personTrip from="372398473#1" to="225572146" modes="public"/>
    </person>
    <person id="ped91" depart="800.65" type="ped_pedestrian">
        <personTrip from="837196483" to="-425379246#0" modes="public"/>
    </person>
    <person id="ped92" depart="809.45" type="ped_pedestrian">
        <personTrip from="225466088" to="180244626#2" modes="public"/>
    </person>
    <person id="ped93" depart="818.25" type="ped_pedestrian">
        <personTrip from="563602635" to="-568382082#0" modes="public"/>
    </person>
    <person id="ped94" depart="827.05" type="ped_pedestrian">
        <personTrip from="-563602656" to="225466111#1" modes="public"/>
    </person>
    <person id="ped95" depart="835.85" type="ped_pedestrian">
        <personTrip from="225466099#2" to="-920874877#0" modes="public"/>
    </person>
    <person id="ped96" depart="844.65" type="ped_pedestrian">
        <personTrip from="-568382084" to="563620340" modes="public"/>
    </person>
    <person id="ped97" depart="853.44" type="ped_pedestrian">
        <personTrip from="225466110#0" to="563602635" modes="public"/>
    </person>
    <person id="ped98" depart="862.24" type="ped_pedestrian">
        <personTrip from="225470258#1" to="-276157215#2" modes="public"/>
    </person>
    <person id="ped99" depart="871.04" type="ped_pedestrian">
        <personTrip from="928756321" to="563602514" modes="public"/>
    </person>
    <person id="ped100" depart="879.84" type="ped_pedestrian">
        <personTrip from="656443274#6" to="563620345#1" modes="public"/>
    </person>
    <person id="ped101" depart="888.64" type="ped_pedestrian">
        <personTrip from="563602543" to="-563602526#0" modes="public"/>
    </person>
    <person id="ped102" depart="897.44" type="ped_pedestrian">
        <personTrip from="225466127#1" to="-563620277" modes="public"/>
    </person>
    <person id="ped103" depart="906.23" type="ped_pedestrian">
        <personTrip from="225466085" to="-335765983#1" modes="public"/>
    </person>
    <person id="ped104" depart="915.03" type="ped_pedestrian">
        <personTrip from="225446893#3" to="837196485#0" modes="public"/>
    </person>
    <person id="ped105" depart="923.83" type="ped_pedestrian">
        <personTrip from="-656443274#6" to="543821135" modes="public"/>
    </person>
    <person id="ped106" depart="932.63" type="ped_pedestrian">
        <personTrip from="225466115#0" to="225466100#0" modes="public"/>
    </person>
    <person id="ped107" depart="941.43" type="ped_pedestrian">
        <personTrip from="586077896#1" to="920874877#0" modes="public"/>
    </person>
    <person id="ped108" depart="950.23" type="ped_pedestrian">
        <personTrip from="225470264#0" to="353960847" modes="public"/>
    </person>
    <person id="ped109" depart="959.02" type="ped_pedestrian">
        <personTrip from="-563602496#0" to="1050574279#3" modes="public"/>
    </person>
    <person id="ped110" depart="967.82" type="ped_pedestrian">
        <personTrip from="656443274#6" to="225473215#0" modes="public"/>
    </person>
    <person id="ped111" depart="976.62" type="ped_pedestrian">
        <personTrip from="225470252#1" to="415361888" modes="public"/>
    </person>
    <person id="ped112" depart="985.42" type="ped_pedestrian">
        <personTrip from="-287145656#4" to="225473223#0" modes="public"/>
    </person>
    <person id="ped113" depart="994.22" type="ped_pedestrian">
        <personTrip from="225466137#2" to="563602569#2" modes="public"/>
    </person>
    <person id="ped114" depart="1003.02" type="ped_pedestrian">
        <personTrip from="-563602505#0" to="586096395" modes="public"/>
    </person>
    <person id="ped115" depart="1011.82" type="ped_pedestrian">
        <personTrip from="-372715931#1" to="-563602650#0" modes="public"/>
    </person>
    <person id="ped116" depart="1020.61" type="ped_pedestrian">
        <personTrip from="225476494" to="258842238#0" modes="public"/>
    </person>
    <person id="ped117" depart="1029.41" type="ped_pedestrian">
        <personTrip from="-563620329#0" to="-543914346#0" modes="public"/>
    </person>
    <person id="ped118" depart="1038.21" type="ped_pedestrian">
        <personTrip from="563616189#0" to="-563620362" modes="public"/>
    </person>
    <person id="ped119" depart="1047.01" type="ped_pedestrian">
        <personTrip from="225476493#1" to="225485338#0" modes="public"/>
    </person>
    <person id="ped120" depart="1055.81" type="ped_pedestrian">
        <personTrip from="225466098#0" to="225473223#0" modes="public"/>
    </person>
    <person id="ped121" depart="1064.61" type="ped_pedestrian">
        <personTrip from="225470240#3" to="563620379" modes="public"/>
    </person>
    <person id="ped122" depart="1073.40" type="ped_pedestrian">
        <personTrip from="-563616189#0" to="335766023#1" modes="public"/>
    </person>
    <person id="ped123" depart="1082.20" type="ped_pedestrian">
        <personTrip from="-563620337" to="225466081#2" modes="public"/>
    </person>
    <person id="ped124" depart="1091.00" type="ped_pedestrian">
        <personTrip from="225571731" to="1050574279#6" modes="public"/>
    </person>
    <person id="ped125" depart="1099.80" type="ped_pedestrian">
        <personTrip from="1134398603" to="415361890#1" modes="public"/>
    </person>
    <person id="ped126" depart="1108.60" type="ped_pedestrian">
        <personTrip from="-372396764#3" to="225466115#3" modes="public"/>
    </person>
    <person id="ped127" depart="1117.40" type="ped_pedestrian">
        <personTrip from="920874877#4" to="920874877#1" modes="public"/>
    </person>
    <person id="ped128" depart="1126.19" type="ped_pedestrian">
        <personTrip from="-372396764#4" to="-563620274" modes="public"/>
    </person>
    <person id="ped129" depart="1134.99" type="ped_pedestrian">
        <personTrip from="-656443274#6" to="563620366" modes="public"/>
    </person>
    <person id="ped130" depart="1143.79" type="ped_pedestrian">
        <personTrip from="563602675#0" to="563602673" modes="public"/>
    </person>
    <person id="ped131" depart="1152.59" type="ped_pedestrian">
        <personTrip from="210835968" to="-563602505#1" modes="public"/>
    </person>
    <person id="ped132" depart="1161.39" type="ped_pedestrian">
        <personTrip from="563602505#1" to="335765990#3" modes="public"/>
    </person>
    <person id="ped133" depart="1170.19" type="ped_pedestrian">
        <personTrip from="225485333#0" to="837196485#2" modes="public"/>
    </person>
    <person id="ped134" depart="1178.98" type="ped_pedestrian">
        <personTrip from="225486060" to="-1121887301" modes="public"/>
    </person>
    <person id="ped135" depart="1187.78" type="ped_pedestrian">
        <personTrip from="561883410#0" to="1050574279#6" modes="public"/>
    </person>
    <person id="ped136" depart="1196.58" type="ped_pedestrian">
        <personTrip from="225571230" to="565245611#1" modes="public"/>
    </person>
    <person id="ped137" depart="1205.38" type="ped_pedestrian">
        <personTrip from="-561883405" to="-540665092#4" modes="public"/>
    </person>
    <person id="ped138" depart="1214.18" type="ped_pedestrian">
        <personTrip from="-440267648#0" to="225470262#2" modes="public"/>
    </person>
    <person id="ped139" depart="1222.98" type="ped_pedestrian">
        <personTrip from="-837196485#3" to="225485325#2" modes="public"/>
    </person>
    <person id="ped140" depart="1231.78" type="ped_pedestrian">
        <personTrip from="346382722#1" to="-563616188#3" modes="public"/>
    </person>
    <person id="ped141" depart="1240.57" type="ped_pedestrian">
        <personTrip from="225485350#1" to="-656443274#4" modes="public"/>
    </person>
    <person id="ped142" depart="1249.37" type="ped_pedestrian">
        <personTrip from="225466128#1" to="563620287#0" modes="public"/>
    </person>
    <person id="ped143" depart="1258.17" type="ped_pedestrian">
        <personTrip from="563602537#1" to="-423655379#0" modes="public"/>
    </person>
    <person id="ped144" depart="1266.97" type="ped_pedestrian">
        <personTrip from="225466100#1" to="-9121329" modes="public"/>
    </person>
    <person id="ped145" depart="1275.77" type="ped_pedestrian">
        <personTrip from="-1046388838#1" to="425380532" modes="public"/>
    </person>
    <person id="ped146" depart="1284.57" type="ped_pedestrian">
        <personTrip from="225485353#1" to="-656443274#2" modes="public"/>
    </person>
    <person id="ped147" depart="1293.36" type="ped_pedestrian">
        <personTrip from="372765901#5" to="225470262#0" modes="public"/>
    </person>
    <person id="ped148" depart="1302.16" type="ped_pedestrian">
        <personTrip from="225466100#5" to="-1181098155" modes="public"/>
    </person>
    <person id="ped149" depart="1310.96" type="ped_pedestrian">
        <personTrip from="-372398472" to="563602688" modes="public"/>
    </person>
    <person id="ped150" depart="1319.76" type="ped_pedestrian">
        <personTrip from="563620286" to="225470252#6" modes="public"/>
    </person>
    <person id="ped151" depart="1328.56" type="ped_pedestrian">
        <personTrip from="563602507#0" to="225473218#1" modes="public"/>
    </person>
    <person id="ped152" depart="1337.36" type="ped_pedestrian">
        <personTrip from="-563602473" to="-543921250" modes="public"/>
    </person>
    <person id="ped153" depart="1346.15" type="ped_pedestrian">
        <personTrip from="1134398599" to="563620276" modes="public"/>
    </person>
    <person id="ped154" depart="1354.95" type="ped_pedestrian">
        <personTrip from="543914346#3" to="563602634" modes="public"/>
    </person>
    <person id="ped155" depart="1363.75" type="ped_pedestrian">
        <personTrip from="563620276" to="-563620267" modes="public"/>
    </person>
    <person id="ped156" depart="1372.55" type="ped_pedestrian">
        <personTrip from="-568382084" to="-425380528" modes="public"/>
    </person>
    <person id="ped157" depart="1381.35" type="ped_pedestrian">
        <personTrip from="540665092#0" to="563602689" modes="public"/>
    </person>
    <person id="ped158" depart="1390.15" type="ped_pedestrian">
        <personTrip from="225466093#0" to="225485339#0" modes="public"/>
    </person>
    <person id="ped159" depart="1398.94" type="ped_pedestrian">
        <personTrip from="-563602496#0" to="563620356" modes="public"/>
    </person>
    <person id="ped160" depart="1407.74" type="ped_pedestrian">
        <personTrip from="563602641" to="778437843#0" modes="public"/>
    </person>
    <person id="ped161" depart="1416.54" type="ped_pedestrian">
        <personTrip from="561883408#1" to="563602675#1" modes="public"/>
    </person>
    <person id="ped162" depart="1425.34" type="ped_pedestrian">
        <personTrip from="-183191745#0" to="372746863" modes="public"/>
    </person>
    <person id="ped163" depart="1434.14" type="ped_pedestrian">
        <personTrip from="1363617804" to="563620358#1" modes="public"/>
    </person>
    <person id="ped164" depart="1442.94" type="ped_pedestrian">
        <personTrip from="544940185" to="563602640" modes="public"/>
    </person>
    <person id="ped165" depart="1451.73" type="ped_pedestrian">
        <personTrip from="561883408#1" to="-656443275" modes="public"/>
    </person>
    <person id="ped166" depart="1460.53" type="ped_pedestrian">
        <personTrip from="543821136#2" to="-440267648#1" modes="public"/>
    </person>
    <person id="ped167" depart="1469.33" type="ped_pedestrian">
        <personTrip from="563602651#1" to="563602575#2" modes="public"/>
    </person>
    <person id="ped168" depart="1478.13" type="ped_pedestrian">
        <personTrip from="-563620298" to="561883410#0" modes="public"/>
    </person>
    <person id="ped169" depart="1486.93" type="ped_pedestrian">
        <personTrip from="225466117#1" to="1134398596#0" modes="public"/>
    </person>
    <person id="ped170" depart="1495.73" type="ped_pedestrian">
        <personTrip from="543914346#3" to="-563620312" modes="public"/>
    </person>
    <person id="ped171" depart="1504.53" type="ped_pedestrian">
        <personTrip from="-180244651" to="-563602667" modes="public"/>
    </person>
    <person id="ped172" depart="1513.32" type="ped_pedestrian">
        <personTrip from="1183056880#0" to="563602640" modes="public"/>
    </person>
    <person id="ped173" depart="1522.12" type="ped_pedestrian">
        <personTrip from="656443274#4" to="-920874877#1" modes="public"/>
    </person>
    <person id="ped174" depart="1530.92" type="ped_pedestrian">
        <personTrip from="225485360#0" to="225466083#1" modes="public"/>
    </person>
    <person id="ped175" depart="1539.72" type="ped_pedestrian">
        <personTrip from="778437849" to="225470245#2" modes="public"/>
    </person>
    <person id="ped176" depart="1548.52" type="ped_pedestrian">
        <personTrip from="565245611#1" to="-540665092#4" modes="public"/>
    </person>
    <person id="ped177" depart="1557.32" type="ped_pedestrian">
        <personTrip from="656443276" to="-563602635" modes="public"/>
    </person>
    <person id="ped178" depart="1566.11" type="ped_pedestrian">
        <personTrip from="656443273" to="-656443274#6" modes="public"/>
    </person>
    <person id="ped179" depart="1574.91" type="ped_pedestrian">
        <personTrip from="-440267648#1" to="225466103" modes="public"/>
    </person>
    <person id="ped180" depart="1583.71" type="ped_pedestrian">
        <personTrip from="372396765#1" to="1134398601#1" modes="public"/>
    </person>
    <person id="ped181" depart="1592.51" type="ped_pedestrian">
        <personTrip from="225485327#0" to="225470236#0" modes="public"/>
    </person>
    <person id="ped182" depart="1601.31" type="ped_pedestrian">
        <personTrip from="225446900#1" to="225470359#1" modes="public"/>
    </person>
    <person id="ped183" depart="1610.11" type="ped_pedestrian">
        <personTrip from="-586077896#1" to="335766008#1" modes="public"/>
    </person>
    <person id="ped184" depart="1618.90" type="ped_pedestrian">
        <personTrip from="-1046388837#0" to="563620345#0" modes="public"/>
    </person>
    <person id="ped185" depart="1627.70" type="ped_pedestrian">
        <personTrip from="225470246#1" to="353960848" modes="public"/>
    </person>
    <person id="ped186" depart="1636.50" type="ped_pedestrian">
        <personTrip from="413506553#0" to="225571730" modes="public"/>
    </person>
    <person id="ped187" depart="1645.30" type="ped_pedestrian">
        <personTrip from="183191792#1" to="-372376369#0" modes="public"/>
    </person>
    <person id="ped188" depart="1654.10" type="ped_pedestrian">
        <personTrip from="225571231" to="1339425865#0" modes="public"/>
    </person>
    <person id="ped189" depart="1662.90" type="ped_pedestrian">
        <personTrip from="1134398601#1" to="563602541" modes="public"/>
    </person>
    <person id="ped190" depart="1671.69" type="ped_pedestrian">
        <personTrip from="353960848" to="1085025207" modes="public"/>
    </person>
    <person id="ped191" depart="1680.49" type="ped_pedestrian">
        <personTrip from="1134398600#0" to="225466093#2" modes="public"/>
    </person>
    <person id="ped192" depart="1689.29" type="ped_pedestrian">
        <personTrip from="225466087" to="1050574279#1" modes="public"/>
    </person>
    <person id="ped193" depart="1698.09" type="ped_pedestrian">