<?xml version="1.0" encoding="UTF-8"?>

<!-- generated on 2025-02-26 16:49:19.999407 by osmWebWizard.py v1_21_0+0000-d7b3b481c43
<configuration>
    <net-file value="C:\Users\evans\Sumo\2025-02-26-16-48-44\osm.net.xml.gz"/>
    <output-trip-file value="C:\Users\evans\Sumo\2025-02-26-16-48-44\osm.truck.trips.xml"/>
    <route-file value="C:\Users\evans\Sumo\2025-02-26-16-48-44\osm.truck.rou.xml"/>
    <prefix value="truck"/>
    <trip-attributes value="departLane=&quot;best&quot;"/>
    <fringe-start-attributes value="departSpeed=&quot;max&quot;"/>
    <vehicle-class value="truck"/>
    <fringe-factor value="5"/>
    <vclass value="truck"/>
    <via-edge-types value="highway.motorway,highway.motorway_link,highway.trunk_link,highway.primary_link,highway.secondary_link,highway.tertiary_link"/>
    <min-distance value="600.0"/>
    <min-distance.fringe value="10.0"/>
    <remove-loops value="True"/>
    <validate value="True"/>
    <end value="86400.0"/>
    <insertion-density value="8.0"/>
</configuration>
-->

<!-- generated on 2025-02-26 16:49:19 by Eclipse SUMO duarouter Version 1.21.0
<duarouterConfiguration xmlns:xsi="http://www.w3.org/2001/XMLSchema-instance" xsi:noNamespaceSchemaLocation="http://sumo.dlr.de/xsd/duarouterConfiguration.xsd">

    <input>
        <net-file value="C:\Users\evans\Sumo\2025-02-26-16-48-44\osm.net.xml.gz"/>
        <route-files value="C:\Users\evans\Sumo\2025-02-26-16-48-44\osm.truck.trips.xml"/>
    </input>

    <output>
        <output-file value="C:\Users\evans\Sumo\2025-02-26-16-48-44\osm.truck.trips.xml.tmp"/>
        <alternatives-output value="NUL"/>
        <write-trips value="true"/>
    </output>

    <processing>
        <remove-loops value="true"/>
    </processing>

    <time>
        <begin value="0.0"/>
        <end value="86400.0"/>
    </time>

    <report>
        <no-warnings value="true"/>
        <ignore-errors value="true"/>
        <no-step-log value="true"/>
    </report>

</duarouterConfiguration>
-->

<routes xmlns:xsi="http://www.w3.org/2001/XMLSchema-instance" xsi:noNamespaceSchemaLocation="http://sumo.dlr.de/xsd/routes_file.xsd">
    <vType id="truck_truck" vClass="truck"/>
    <trip id="truck0" type="truck_truck" depart="0.00" departLane="best" from="-631611869#1" to="-586413246#11"/>
    <trip id="truck1" type="truck_truck" depart="9.22" departLane="best" from="568370164" to="415362031#3"/>
    <trip id="truck2" type="truck_truck" depart="18.44" departLane="best" from="-9150977#21" to="1315066560"/>
    <trip id="truck3" type="truck_truck" depart="27.66" departLane="best" departSpeed="max" from="-568377840#3" to="1333430094#1"/>
    <trip id="truck4" type="truck_truck" depart="36.88" departLane="best" departSpeed="max" from="-1209313235" to="568370163"/>
    <trip id="truck5" type="truck_truck" depart="46.10" departLane="best" departSpeed="max" from="-568377840#3" to="276157215#2"/>
    <trip id="truck6" type="truck_truck" depart="55.31" departLane="best" from="656443274#1" to="-1044405760#2"/>
    <trip id="truck7" type="truck_truck" depart="64.53" departLane="best" from="-9138488#13" to="-371908690#1"/>
    <trip id="truck8" type="truck_truck" depart="73.75" departLane="best" from="180244652#3" to="276157215#2"/>
    <trip id="truck9" type="truck_truck" depart="82.97" departLane="best" from="9122810#1" to="277745441"/>
    <trip id="truck10" type="truck_truck" depart="92.19" departLane="best" from="-180244636#5" to="9150977#22"/>
    <trip id="truck12" type="truck_truck" depart="110.63" departLane="best" from="9119753#3" to="287145656#0"/>
    <trip id="truck13" type="truck_truck" depart="119.85" departLane="best" from="-9129472" to="-267110730#1"/>
    <trip id="truck14" type="truck_truck" depart="129.07" departLane="best" from="551574173" to="1338769043#1"/>
    <trip id="truck15" type="truck_truck" depart="138.29" departLane="best" from="568382083#2" to="-9122810#0"/>
    <trip id="truck17" type="truck_truck" depart="156.72" departLane="best" from="341624738#0" to="-9142394#4"/>
    <trip id="truck18" type="truck_truck" depart="165.94" departLane="best" from="-9142445#1" to="-568382083#3"/>
    <trip id="truck19" type="truck_truck" depart="175.16" departLane="best" from="-586413246#7" to="9147358#1"/>
    <trip id="truck20" type="truck_truck" depart="184.38" departLane="best" from="371908690#0" to="277745441"/>
    <trip id="truck21" type="truck_truck" depart="193.60" departLane="best" from="-371908694#1" to="565255792#0"/>
    <trip id="truck23" type="truck_truck" depart="212.04" departLane="best" departSpeed="max" from="9122810#0" to="-586080834"/>
    <trip id="truck24" type="truck_truck" depart="221.26" departLane="best" from="568382083#2" to="1315066562"/>
    <trip id="truck25" type="truck_truck" depart="230.48" departLane="best" from="-568370163" to="9147358#2"/>
    <trip id="truck26" type="truck_truck" depart="239.69" departLane="best" from="-371908694#4" to="-9148293"/>
    <trip id="truck27" type="truck_truck" depart="248.91" departLane="best" from="-586413246#6" to="-631611868"/>
    <trip id="truck28" type="truck_truck" depart="258.13" departLane="best" from="-276157215#9" to="9138488#5"/>
    <trip id="truck29" type="truck_truck" depart="267.35" departLane="best" departSpeed="max" from="-9148332#11" to="-586080837"/>
    <trip id="truck31" type="truck_truck" depart="285.79" departLane="best" from="586413259#2" to="9150977#16"/>
    <trip id="truck33" type="truck_truck" depart="304.23" departLane="best" from="9153734#2" to="-586080837"/>
    <trip id="truck34" type="truck_truck" depart="313.45" departLane="best" from="9148332#9" to="-9122810#1"/>
    <trip id="truck35" type="truck_truck" depart="322.67" departLane="best" from="1044405760#6" to="551574175#0"/>
    <trip id="truck36" type="truck_truck" depart="331.88" departLane="best" from="505368797#4" to="-180244636#6"/>
    <trip id="truck37" type="truck_truck" depart="341.10" departLane="best" from="-586413246#7" to="-341624737#0"/>
    <trip id="truck38" type="truck_truck" depart="350.32" departLane="best" from="267110730#1" to="9152018#1"/>
    <trip id="truck39" type="truck_truck" depart="359.54" departLane="best" from="9137054#1" to="-691528611"/>
    <trip id="truck40" type="truck_truck" depart="368.76" departLane="best" from="-1315070421#1" to="-533665196#1"/>
    <trip id="truck41" type="truck_truck" depart="377.98" departLane="best" from="9142338#3" to="-9130541#2"/>
    <trip id="truck42" type="truck_truck" depart="387.20" departLane="best" from="-9119753#2" to="-341623766#4"/>
    <trip id="truck43" type="truck_truck" depart="396.42" departLane="best" departSpeed="max" from="290619644#0" to="343541421"/>
    <trip id="truck44" type="truck_truck" depart="405.64" departLane="best" from="1044405760#0" to="-9137054#3"/>
    <trip id="truck46" type="truck_truck" depart="424.07" departLane="best" from="9137054#3" to="656443274#3"/>
    <trip id="truck47" type="truck_truck" depart="433.29" departLane="best" from="9137054#2" to="9148332#10"/>
    <trip id="truck48" type="truck_truck" depart="442.51" departLane="best" departSpeed="max" from="-180244639#2" to="129601761"/>
    <trip id="truck49" type="truck_truck" depart="451.73" departLane="best" from="180244636#1" to="-568382083#3"/>
    <trip id="truck50" type="truck_truck" depart="460.95" departLane="best" from="586413246#11" to="-341623766#0"/>
    <trip id="truck51" type="truck_truck" depart="470.17" departLane="best" from="1090690719#1" to="180244639#2"/>
    <trip id="truck52" type="truck_truck" depart="479.39" departLane="best" from="586413246#6" to="-9130541#3"/>
    <trip id="truck53" type="truck_truck" depart="488.61" departLane="best" departSpeed="max" from="-9150977#22" to="-586077896#0"/>
    <trip id="truck54" type="truck_truck" depart="497.83" departLane="best" from="180244636#8" to="565255792#0"/>
    <trip id="truck55" type="truck_truck" depart="507.05" departLane="best" from="-540665092#4" to="-9130541#3"/>
    <trip id="truck56" type="truck_truck" depart="516.26" departLane="best" from="9153734#1" to="-343537871"/>
    <trip id="truck57" type="truck_truck" depart="525.48" departLane="best" from="-9151585#5" to="1338769043#5"/>
    <trip id="truck58" type="truck_truck" depart="534.70" departLane="best" from="-9138488#12" to="276157215#1"/>
    <trip id="truck59" type="truck_truck" depart="543.92" departLane="best" from="568382083#3" to="-586413246#0"/>
    <trip id="truck60" type="truck_truck" depart="553.14" departLane="best" from="-180244636#4" to="304892966#1"/>
    <trip id="truck61" type="truck_truck" depart="562.36" departLane="best" from="568382083#2" to="-9142338#2"/>
    <trip id="truck62" type="truck_truck" depart="571.58" departLane="best" from="586080834" to="415358466#2"/>
    <trip id="truck63" type="truck_truck" depart="580.80" departLane="best" from="-568373941#1" to="-341623766#0"/>
    <trip id="truck65" type="truck_truck" depart="599.24" departLane="best" departSpeed="max" from="1090690719#0" to="586413246#1"/>
    <trip id="truck66" type="truck_truck" depart="608.45" departLane="best" departSpeed="max" from="-210830412" to="9151585#5"/>
    <trip id="truck67" type="truck_truck" depart="617.67" departLane="best" departSpeed="max" from="-9150977#22" to="1088638470"/>
    <trip id="truck68" type="truck_truck" depart="626.89" departLane="best" from="565255792#5" to="415362031#0"/>
    <trip id="truck69" type="truck_truck" depart="636.11" departLane="best" departSpeed="max" from="-9148332#11" to="9138488#3"/>
    <trip id="truck70" type="truck_truck" depart="645.33" departLane="best" from="533665196#0" to="-1044405760#10"/>
    <trip id="truck71" type="truck_truck" depart="654.55" departLane="best" from="-9150977#21" to="-9122370#1"/>
    <trip id="truck73" type="truck_truck" depart="672.99" departLane="best" from="988304974" to="656443274#6"/>
    <trip id="truck75" type="truck_truck" depart="691.43" departLane="best" from="9122810#2" to="415362031#4"/>
    <trip id="truck76" type="truck_truck" depart="700.64" departLane="best" from="129601761" to="586077896#3"/>
    <trip id="truck77" type="truck_truck" depart="709.86" departLane="best" from="1044405760#10" to="9150977#3"/>
    <trip id="truck78" type="truck_truck" depart="719.08" departLane="best" from="-9148332#0" to="9153734#1"/>
    <trip id="truck80" type="truck_truck" depart="737.52" departLane="best" from="341624738#1" to="-9124791#0"/>
    <trip id="truck81" type="truck_truck" depart="746.74" departLane="best" from="-9148332#8" to="-267110730#2"/>
    <trip id="truck82" type="truck_truck" depart="755.96" departLane="best" from="180244637#1" to="568377840#3"/>
    <trip id="truck83" type="truck_truck" depart="765.18" departLane="best" from="-1338769043#4" to="273902602#1"/>
    <trip id="truck84" type="truck_truck" depart="774.40" departLane="best" from="-1315084524" to="-9122370#1"/>
    <trip id="truck85" type="truck_truck" depart="783.62" departLane="best" from="-341635867#0" to="9148332#7"/>
    <trip id="truck86" type="truck_truck" depart="792.83" departLane="best" from="-180244639#0" to="-540665092#2"/>
    <trip id="truck87" type="truck_truck" depart="802.05" departLane="best" from="283536956#2" to="415362031#1"/>
    <trip id="truck88" type="truck_truck" depart="811.27" departLane="best" from="586080832" to="-290619644#0"/>
    <trip id="truck89" type="truck_truck" depart="820.49" departLane="best" from="9138488#15" to="-631611868"/>
    <trip id="truck90" type="truck_truck" depart="829.71" departLane="best" from="-9150977#15" to="273902602#0"/>
    <trip id="truck91" type="truck_truck" depart="838.93" departLane="best" from="180244628" to="-9148293"/>
    <trip id="truck92" type="truck_truck" depart="848.15" departLane="best" from="423728986" to="-9124791#0"/>
    <trip id="truck93" type="truck_truck" depart="857.37" departLane="best" from="9124791#1" to="568377840#3"/>
    <trip id="truck94" type="truck_truck" depart="866.59" departLane="best" from="180244636#5" to="-1044405760#8"/>
    <trip id="truck95" type="truck_truck" depart="875.81" departLane="best" from="180244636#5" to="-586077896#1"/>
    <trip id="truck97" type="truck_truck" depart="894.24" departLane="best" from="-9142445#1" to="371908694#1"/>
    <trip id="truck98" type="truck_truck" depart="903.46" departLane="best" departSpeed="max" from="290619644#0" to="9151585#6"/>
    <trip id="truck99" type="truck_truck" depart="912.68" departLane="best" from="-371908694#3" to="-1044405760#3"/>
    <trip id="truck100" type="truck_truck" depart="921.90" departLane="best" from="-415362031#3" to="9147358#2"/>
    <trip id="truck102" type="truck_truck" depart="940.34" departLane="best" from="631611868" to="277745441"/>
    <trip id="truck103" type="truck_truck" depart="949.56" departLane="best" departSpeed="max" from="563606218" to="-568380593"/>
    <trip id="truck104" type="truck_truck" depart="958.78" departLane="best" from="341624737#0" to="-691528611"/>
    <trip id="truck105" type="truck_truck" depart="968.00" departLane="best" departSpeed="max" from="9122810#0" to="273902602#1"/>
    <trip id="truck106" type="truck_truck" depart="977.21" departLane="best" departSpeed="max" from="-9150977#22" to="-9122370#0"/>
    <trip id="truck107" type="truck_truck" depart="986.43" departLane="best" from="341624738#1" to="656443275"/>
    <trip id="truck108" type="truck_truck" depart="995.65" departLane="best" from="568380593" to="180244639#2"/>
    <trip id="truck109" type="truck_truck" depart="1004.87" departLane="best" departSpeed="max" from="-9150977#22" to="-1044405760#5"/>
    <trip id="truck110" type="truck_truck" depart="1014.09" departLane="best" from="180244636#7" to="9138488#1"/>
    <trip id="truck111" type="truck_truck" depart="1023.31" departLane="best" departSpeed="max" from="9142338#0" to="180244639#1"/>
    <trip id="truck112" type="truck_truck" depart="1032.53" departLane="best" from="9122370#2" to="273902602#0"/>
    <trip id="truck113" type="truck_truck" depart="1041.75" departLane="best" from="9138488#6" to="-568382083#3"/>
    <trip id="truck114" type="truck_truck" depart="1050.97" departLane="best" from="-586413246#5" to="9138488#10"/>
    <trip id="truck115" type="truck_truck" depart="1060.19" departLane="best" from="9130541#2" to="9150977#22"/>
    <trip id="truck116" type="truck_truck" depart="1069.40" departLane="best" from="-1118381045" to="565255792#5"/>
    <trip id="truck117" type="truck_truck" depart="1078.62" departLane="best" from="631611868" to="-9124791#1"/>
    <trip id="truck118" type="truck_truck" depart="1087.84" departLane="best" departSpeed="max" from="9137054#0" to="9122370#5"/>
    <trip id="truck119" type="truck_truck" depart="1097.06" departLane="best" departSpeed="max" from="-568377840#3" to="586413266#1"/>
    <trip id="truck120" type="truck_truck" depart="1106.28" departLane="best" from="1044405760#4" to="-9127807"/>
    <trip id="truck121" type="truck_truck" depart="1115.50" departLane="best" from="-1118381045" to="540665092#8"/>
    <trip id="truck122" type="truck_truck" depart="1124.72" departLane="best" from="343535439" to="-9148293"/>
    <trip id="truck124" type="truck_truck" depart="1143.16" departLane="best" from="9148332#9" to="533665196#1"/>
    <trip id="truck125" type="truck_truck" depart="1152.38" departLane="best" from="9148332#3" to="-691528616"/>
    <trip id="truck127" type="truck_truck" depart="1170.81" departLane="best" from="565255792#4" to="-9130541#4"/>
    <trip id="truck128" type="truck_truck" depart="1180.03" departLane="best" departSpeed="max" from="290619644#0" to="-1333430095#2"/>
    <trip id="truck131" type="truck_truck" depart="1207.69" departLane="best" from="180244636#7" to="551574174"/>
    <trip id="truck132" type="truck_truck" depart="1216.91" departLane="best" from="568380593" to="415358466#2"/>
    <trip id="truck133" type="truck_truck" depart="1226.13" departLane="best" from="-9142394#4" to="-180244636#8"/>
    <trip id="truck134" type="truck_truck" depart="1235.35" departLane="best" from="-415362031#4" to="-9138488#11"/>
    <trip id="truck135" type="truck_truck" depart="1244.57" departLane="best" from="9122810#2" to="9119753#2"/>
    <trip id="truck136" type="truck_truck" depart="1253.79" departLane="best" departSpeed="max" from="-9148332#11" to="-9122810#3"/>
    <trip id="truck137" type="truck_truck" depart="1263.00" departLane="best" from="-276157215#6" to="9150977#2"/>
    <trip id="truck138" type="truck_truck" depart="1272.22" departLane="best" from="-9119753#3" to="180244639#2"/>
    <trip id="truck139" type="truck_truck" depart="1281.44" departLane="best" from="1044405760#0" to="-9122810#0"/>
    <trip id="truck140" type="truck_truck" depart="1290.66" departLane="best" from="-9150977#3" to="-267110730#3"/>
    <trip id="truck141" type="truck_truck" depart="1299.88" departLane="best" from="-9152018#1" to="586077896#3"/>
    <trip id="truck142" type="truck_truck" depart="1309.10" departLane="best" departSpeed="max" from="1090690719#0" to="9138488#8"/>
    <trip id="truck143" type="truck_truck" depart="1318.32" departLane="best" from="586413266#1" to="423655377#1"/>
    <trip id="truck144" type="truck_truck" depart="1327.54" departLane="best" departSpeed="max" from="-180244639#2" to="1338769043#3"/>
    <trip id="truck145" type="truck_truck" depart="1336.76" departLane="best" from="341623766#4" to="-9138488#15"/>
    <trip id="truck146" type="truck_truck" depart="1345.98" departLane="best" from="691528611" to="568377840#3"/>
    <trip id="truck147" type="truck_truck" depart="1355.19" departLane="best" from="423728988" to="-586413246#12"/>
    <trip id="truck148" type="truck_truck" depart="1364.41" departLane="best" from="-540665092#3" to="1118381045"/>
    <trip id="truck149" type="truck_truck" depart="1373.63" departLane="best" departSpeed="max" from="-586147124" to="1090698273#1"/>
    <trip id="truck150" type="truck_truck" depart="1382.85" departLane="best" from="-9148332#8" to="304892966#0"/>
    <trip id="truck151" type="truck_truck" depart="1392.07" departLane="best" from="-1315066559" to="-586413249#1"/>
    <trip id="truck152" type="truck_truck" depart="1401.29" departLane="best" from="9130541#5" to="-1044405760#2"/>
    <trip id="truck154" type="truck_truck" depart="1419.73" departLane="best" from="-415362031#0" to="9148332#4"/>
    <trip id="truck155" type="truck_truck" depart="1428.95" departLane="best" from="586413246#11" to="9119753#3"/>
    <trip id="truck156" type="truck_truck" depart="1438.17" departLane="best" from="1044405760#11" to="586413246#6"/>
    <trip id="truck158" type="truck_truck" depart="1456.60" departLane="best" from="283536956#2" to="9148332#11"/>
    <trip id="truck159" type="truck_truck" depart="1465.82" departLane="best" from="9138488#16" to="283536956#1"/>
    <trip id="truck160" type="truck_truck" depart="1475.04" departLane="best" from="-9119753#4" to="180244639#2"/>
    <trip id="truck161" type="truck_truck" depart="1484.26" departLane="best" from="9138488#5" to="568373941#1"/>
    <trip id="truck162" type="truck_truck" depart="1493.48" departLane="best" departSpeed="max" from="1090690719#0" to="656443274#5"/>
    <trip id="truck163" type="truck_truck" depart="1502.70" departLane="best" from="-586413246#0" to="-341623766#3"/>
    <trip id="truck164" type="truck_truck" depart="1511.92" departLane="best" from="586413246#11" to="1338769044#1"/>
    <trip id="truck165" type="truck_truck" depart="1521.14" departLane="best" departSpeed="max" from="341623766#0" to="-9119753#3"/>
    <trip id="truck166" type="truck_truck" depart="1530.36" departLane="best" from="180244636#8" to="-341623766#4"/>
    <trip id="truck167" type="truck_truck" depart="1539.57" departLane="best" from="551574174" to="-180244636#4"/>
    <trip id="truck168" type="truck_truck" depart="1548.79" departLane="best" from="-9148332#3" to="180244637#1"/>
    <trip id="truck169" type="truck_truck" depart="1558.01" departLane="best" from="-9150977#15" to="-9142338#2"/>
    <trip id="truck171" type="truck_truck" depart="1576.45" departLane="best" from="-9138488#7" to="568377840#3"/>
    <trip id="truck172" type="truck_truck" depart="1585.67" departLane="best" departSpeed="max" from="9124791#0" to="9148332#11"/>
    <trip id="truck173" type="truck_truck" depart="1594.89" departLane="best" from="-9150977#15" to="568377840#3"/>
    <trip id="truck174" type="truck_truck" depart="1604.11" departLane="best" departSpeed="max" from="-568377840#3" to="180244628"/>
    <trip id="truck175" type="truck_truck" depart="1613.33" departLane="best" from="-9151585#3" to="1315066560"/>
    <trip id="truck176" type="truck_truck" depart="1622.55" departLane="best" departSpeed="max" from="-9148332#11" to="415362031#3"/>
    <trip id="truck177" type="truck_truck" depart="1631.76" departLane="best" from="1088638458" to="-341623766#0"/>
    <trip id="truck178" type="truck_truck" depart="1640.98" departLane="best" departSpeed="max" from="-9147358#2" to="210830412"/>
    <trip id="truck179" type="truck_truck" depart="1650.20" departLane="best" from="-287145656#2" to="1088638458"/>
    <trip id="truck181" type="truck_truck" depart="1668.64" departLane="best" from="-568370163" to="9138488#0"/>
    <trip id="truck184" type="truck_truck" depart="1696.30" departLane="best" departSpeed="max" from="-1090698273#3" to="-180244636#8"/>
    <trip id="truck185" type="truck_truck" depart="1705.52" departLane="best" from="371908690#1" to="586147124"/>
    <trip id="truck186" type="truck_truck" depart="1714.74" departLane="best" from="371908694#0" to="-568380593"/>
    <trip id="truck187" type="truck_truck" depart="1723.95" departLane="best" from="-9147358#1" to="-9130541#0"/>
    <trip id="truck188" type="truck_truck" depart="1733.17" departLane="best" departSpeed="max" from="-1090698273#3" to="343541421"/>
    <trip id="truck189" type="truck_truck" depart="1742.39" departLane="best" from="276157215#5" to="415358466#2"/>
    <trip id="truck190" type="truck_truck" depart="1751.61" departLane="best" departSpeed="max" from="273902600" to="-586080834"/>
    <trip id="truck191" type="truck_truck" depart="1760.83" departLane="best" from="-540665092#6" to="586413256"/>
    <trip id="truck192" type="truck_truck" depart="1770.05" departLane="best" from="371908690#1" to="277745441"/>
    <trip id="truck193" type="truck_truck" depart="1779.27" departLane="best" from="568382083#3" to="-287145664#1"/>
    <trip id="truck195" type="truck_truck" depart="1797.71" departLane="best" from="9122810#1" to="415362031#4"/>
    <trip id="truck196" type="truck_truck" depart="1806.93" departLane="best" departSpeed="max" from="563606218" to="180244652#0"/>
    <trip id="truck197" type="truck_truck" depart="1816.14" departLane="best" from="-540665092#1" to="290619644#2"/>
    <trip id="truck199" type="truck_truck" depart="1834.58" departLane="best" from="-586413246#6" to="-9138488#9"/>
    <trip id="truck200" type="truck_truck" depart="1843.80" departLane="best" from="9122810#3" to="631611869#0"/>
    <trip id="truck202" type="truck_truck" depart="1862.24" departLane="best" from="341624738#0" to="656443274#1"/>
    <trip id="truck203" type="truck_truck" depart="1871.46" departLane="best" from="551574175#0" to="9152018#1"/>
    <trip id="truck204" type="truck_truck" depart="1880.68" departLane="best" from="565255794" to="9150977#1"/>
    <trip id="truck205" type="truck_truck" depart="1889.90" departLane="best" from="180244636#7" to="1209313235"/>
    <trip id="truck206" type="truck_truck" depart="1899.12" departLane="best" from="-9151585#3" to="565255792#1"/>
    <trip id="truck207" type="truck_truck" depart="1908.33" departLane="best" from="-586413249#0" to="-9122370#0"/>
    <trip id="truck208" type="truck_truck" depart="1917.55" departLane="best" from="9119753#4" to="-267110730#2"/>
    <trip id="truck209" type="truck_truck" depart="1926.77" departLane="best" from="1044405760#8" to="277745444"/>
    <trip id="truck210" type="truck_truck" depart="1935.99" departLane="best" departSpeed="max" from="9124791#0" to="540665092#1"/>
    <trip id="truck211" type="truck_truck" depart="1945.21" departLane="best" from="-568373941#0" to="-586413246#3"/>
    <trip id="truck212" type="truck_truck" depart="1954.43" departLane="best" from="-9138488#14" to="-9137054#4"/>
    <trip id="truck213" type="truck_truck" depart="1963.65" departLane="best" from="-540665092#7" to="-9122370#0"/>
    <trip id="truck214" type="truck_truck" depart="1972.87" departLane="best" departSpeed="max" from="-180244639#2" to="551574175#0"/>
    <trip id="truck215" type="truck_truck" depart="1982.09" departLane="best" from="129601762#1" to="-568382083#1"/>
    <trip id="truck216" type="truck_truck" depart="1991.31" departLane="best" from="-540665092#1" to="341635867#0"/>
    <trip id="truck217" type="truck_truck" depart="2000.52" departLane="best" from="129601762#2" to="586413246#16"/>
    <trip id="truck218" type="truck_truck" depart="2009.74" departLane="best" from="210830064" to="-586413246#1"/>
    <trip id="truck219" type="truck_truck" depart="2018.96" departLane="best" from="-540665092#10" to="-9127807"/>
    <trip id="truck220" type="truck_truck" depart="2028.18" departLane="best" from="-276157215#6" to="1090698273#1"/>
    <trip id="truck221" type="truck_truck" depart="2037.40" departLane="best" from="180244636#0" to="9151585#1"/>
    <trip id="truck222" type="truck_truck" depart="2046.62" departLane="best" from="568382083#1" to="-9138488#11"/>
    <trip id="truck223" type="truck_truck" depart="2055.84" departLane="best" from="-586413246#13" to="-290619644#0"/>
    <trip id="truck224" type="truck_truck" depart="2065.06" departLane="best" from="-540665092#0" to="-290619644#0"/>
    <trip id="truck225" type="truck_truck" depart="2074.28" departLane="best" from="180244636#5" to="586002129"/>
    <trip id="truck226" type="truck_truck" depart="2083.50" departLane="best" from="505368797#1" to="586080833"/>
    <trip id="truck227" type="truck_truck" depart="2092.71" departLane="best" from="1118381045" to="551576182"/>
    <trip id="truck228" type="truck_truck" depart="2101.93" departLane="best" from="-9150977#3" to="1339425865#0"/>
    <trip id="truck229" type="truck_truck" depart="2111.15" departLane="best" from="-656443274#3" to="276157215#5"/>
    <trip id="truck230" type="truck_truck" depart="2120.37" departLane="best" from="540665092#1" to="-586413246#14"/>
    <trip id="truck231" type="truck_truck" depart="2129.59" departLane="best" from="-415362031#4" to="-1044405760#8"/>
    <trip id="truck232" type="truck_truck" depart="2138.81" departLane="best" from="180244636#4" to="9119753#3"/>
    <trip id="truck233" type="truck_truck" depart="2148.03" departLane="best" from="-9150977#21" to="180244645"/>
    <trip id="truck234" type="truck_truck" depart="2157.25" departLane="best" from="-540665092#4" to="290619644#3"/>
    <trip id="truck235" type="truck_truck" depart="2166.47" departLane="best" from="9130541#5" to="276157218"/>
    <trip id="truck237" type="truck_truck" depart="2184.91" departLane="best" departSpeed="max" from="1090690719#0" to="-9153734#1"/>
    <trip id="truck239" type="truck_truck" depart="2203.34" departLane="best" from="180244636#6" to="290619644#3"/>
    <trip id="truck240" type="truck_truck" depart="2212.56" departLane="best" from="-1338769043#1" to="-343537871"/>
    <trip id="truck241" type="truck_truck" depart="2221.78" departLane="best" departSpeed="max" from="273902600" to="-9124791#3"/>
    <trip id="truck242" type="truck_truck" depart="2231.00" departLane="best" from="-9153734#0" to="-290619644#0"/>
    <trip id="truck243" type="truck_truck" depart="2240.22" departLane="best" from="-586413246#1" to="277745441"/>
    <trip id="truck244" type="truck_truck" depart="2249.44" departLane="best" from="586413259#1" to="-586413246#13"/>
    <trip id="truck245" type="truck_truck" depart="2258.66" departLane="best" from="-9152018#1" to="-9127807"/>
    <trip id="truck246" type="truck_truck" depart="2267.88" departLane="best" from="31031717#1" to="277745441"/>
    <trip id="truck247" type="truck_truck" depart="2277.10" departLane="best" from="568377839" to="9148332#10"/>
    <trip id="truck248" type="truck_truck" depart="2286.31" departLane="best" from="-415362031#0" to="371908694#0"/>
    <trip id="truck250" type="truck_truck" depart="2304.75" departLane="best" departSpeed="max" from="-9150977#22" to="180244639#1"/>
    <trip id="truck251" type="truck_truck" depart="2313.97" departLane="best" from="-343541421" to="9142394#1"/>
    <trip id="truck252" type="truck_truck" depart="2323.19" departLane="best" from="-9119753#1" to="-180244637#0"/>
    <trip id="truck254" type="truck_truck" depart="2341.63" departLane="best" from="-540665092#0" to="533665196#0"/>
    <trip id="truck255" type="truck_truck" depart="2350.85" departLane="best" from="-1315066559" to="-210830064"/>
    <trip id="truck256" type="truck_truck" depart="2360.07" departLane="best" from="9130541#1" to="-631653305#2"/>
    <trip id="truck258" type="truck_truck" depart="2378.50" departLane="best" from="423728986" to="-9119204"/>
    <trip id="truck260" type="truck_truck" depart="2396.94" departLane="best" departSpeed="max" from="1090690719#0" to="-343537873"/>
    <trip id="truck261" type="truck_truck" depart="2406.16" departLane="best" from="129601762#3" to="273902602#0"/>
    <trip id="truck262" type="truck_truck" depart="2415.38" departLane="best" from="9137054#2" to="-505368797#3"/>
    <trip id="truck263" type="truck_truck" depart="2424.60" departLane="best" from="656443274#4" to="180244639#2"/>
    <trip id="truck264" type="truck_truck" depart="2433.82" departLane="best" from="1044405760#10" to="-9137054#0"/>
    <trip id="truck265" type="truck_truck" depart="2443.04" departLane="best" from="9130541#1" to="9150977#22"/>
    <trip id="truck266" type="truck_truck" depart="2452.26" departLane="best" from="-9151585#6" to="371908694#0"/>