<?xml version="1.0" encoding="UTF-8"?>

<!-- generated on 2025-03-03 18:44:04.835711 by osmWebWizard.py v1_21_0+0000-d7b3b481c43
<configuration>
    <net-file value="C:\Users\evans\Sumo\2025-03-03-18-43-58\osm.net.xml.gz"/>
    <output-trip-file value="C:\Users\evans\Sumo\2025-03-03-18-43-58\osm.bus.trips.xml"/>
    <route-file value="C:\Users\evans\Sumo\2025-03-03-18-43-58\osm.bus.rou.xml"/>
    <prefix value="bus"/>
    <trip-attributes value="departLane=&quot;best&quot;"/>
    <fringe-start-attributes value="departSpeed=&quot;max&quot;"/>
    <vehicle-class value="bus"/>
    <fringe-factor value="5"/>
    <vclass value="bus"/>
    <via-edge-types value="highway.motorway,highway.motorway_link,highway.trunk_link,highway.primary_link,highway.secondary_link,highway.tertiary_link"/>
    <min-distance value="600.0"/>
    <min-distance.fringe value="10.0"/>
    <remove-loops value="True"/>
    <validate value="True"/>
    <end value="86400.0"/>
    <insertion-density value="4.0"/>
</configuration>
-->

<!-- generated on 2025-03-03 18:44:04 by Eclipse SUMO duarouter Version 1.21.0
<duarouterConfiguration xmlns:xsi="http://www.w3.org/2001/XMLSchema-instance" xsi:noNamespaceSchemaLocation="http://sumo.dlr.de/xsd/duarouterConfiguration.xsd">

    <input>
        <net-file value="C:\Users\evans\Sumo\2025-03-03-18-43-58\osm.net.xml.gz"/>
        <route-files value="C:\Users\evans\Sumo\2025-03-03-18-43-58\osm.bus.trips.xml"/>
    </input>

    <output>
        <output-file value="C:\Users\evans\Sumo\2025-03-03-18-43-58\osm.bus.trips.xml.tmp"/>
        <alternatives-output value="NUL"/>
        <write-trips value="true"/>
    </output>

    <processing>
        <remove-loops value="true"/>
    </processing>

    <time>
        <begin value="0.0"/>
        <end value="86400.0"/>
    </time>

    <report>
        <no-warnings value="true"/>
        <ignore-errors value="true"/>
        <no-step-log value="true"/>
    </report>

</duarouterConfiguration>
-->

<routes xmlns:xsi="http://www.w3.org/2001/XMLSchema-instance" xsi:noNamespaceSchemaLocation="http://sumo.dlr.de/xsd/routes_file.xsd">
    <vType id="bus_bus" vClass="bus"/>
    <trip id="bus0" type="bus_bus" depart="0.00" departLane="best" from="631653305#0" to="-586413246#11"/>
    <trip id="bus1" type="bus_bus" depart="46.18" departLane="best" from="586002130#1" to="540665092#9"/>
    <trip id="bus3" type="bus_bus" depart="138.53" departLane="best" departSpeed="max" from="1209313234" to="1339425865#0"/>
    <trip id="bus4" type="bus_bus" depart="184.70" departLane="best" from="180244636#3" to="-568382083#2"/>
    <trip id="bus5" type="bus_bus" depart="230.88" departLane="best" from="-540665092#4" to="276157215#1"/>
    <trip id="bus6" type="bus_bus" depart="277.05" departLane="best" from="-586413246#15" to="283536957"/>
    <trip id="bus8" type="bus_bus" depart="369.41" departLane="best" from="565255794" to="-180244636#5"/>
    <trip id="bus9" type="bus_bus" depart="415.58" departLane="best" from="-276157215#2" to="-586413246#14"/>
    <trip id="bus10" type="bus_bus" depart="461.76" departLane="best" from="-276157224#0" to="656443273"/>
    <trip id="bus11" type="bus_bus" depart="507.93" departLane="best" from="-540665092#1" to="-9137054#0"/>
    <trip id="bus12" type="bus_bus" depart="554.11" departLane="best" departSpeed="max" from="-631611869#1" to="9142394#2"/>
    <trip id="bus13" type="bus_bus" depart="600.28" departLane="best" from="540665092#4" to="343541421"/>
    <trip id="bus14" type="bus_bus" depart="646.46" departLane="best" from="-540665092#9" to="586002130#0"/>
    <trip id="bus16" type="bus_bus" depart="738.81" departLane="best" from="656443273" to="-586413246#15"/>
    <trip id="bus18" type="bus_bus" depart="831.16" departLane="best" from="586413246#11" to="9142394#4"/>
    <trip id="bus19" type="bus_bus" depart="877.34" departLane="best" from="9124791#0" to="1338769044#1"/>
    <trip id="bus20" type="bus_bus" depart="923.51" departLane="best" from="283536958" to="586413246#8"/>
    <trip id="bus22" type="bus_bus" depart="1015.87" departLane="best" from="9153734" to="180244639#2"/>
    <trip id="bus25" type="bus_bus" depart="1154.39" departLane="best" from="-9152018#2" to="273902603"/>
    <trip id="bus26" type="bus_bus" depart="1200.57" departLane="best" from="-9151585#0" to="656443274#0"/>
    <trip id="bus27" type="bus_bus" depart="1246.74" departLane="best" departSpeed="max" from="-631611869#1" to="533665191"/>
    <trip id="bus28" type="bus_bus" depart="1292.92" departLane="best" from="-180244639#0" to="-565255794"/>
    <trip id="bus29" type="bus_bus" depart="1339.10" departLane="best" from="9122810#0" to="656443274#4"/>
    <trip id="bus30" type="bus_bus" depart="1385.27" departLane="best" from="-586413246#1" to="273902603"/>
    <trip id="bus31" type="bus_bus" depart="1431.45" departLane="best" from="586413246#16" to="273902603"/>
    <trip id="bus33" type="bus_bus" depart="1523.80" departLane="best" from="180244636#0" to="-9142338"/>
    <trip id="bus35" type="bus_bus" depart="1616.15" departLane="best" from="-180244652#2" to="586413246#0"/>
    <trip id="bus37" type="bus_bus" depart="1708.50" departLane="best" from="180244636#1" to="276157215#2"/>
    <trip id="bus38" type="bus_bus" depart="1754.68" departLane="best" departSpeed="max" from="-631611869#1" to="656443274#4"/>
    <trip id="bus39" type="bus_bus" depart="1800.85" departLane="best" departSpeed="max" from="1209313234" to="586080833"/>
    <trip id="bus40" type="bus_bus" depart="1847.03" departLane="best" from="180244628" to="-828146451"/>
    <trip id="bus41" type="bus_bus" depart="1893.20" departLane="best" from="-9152018#2" to="540665092#1"/>
    <trip id="bus42" type="bus_bus" depart="1939.38" departLane="best" from="129601762#0" to="180244639#2"/>
    <trip id="bus43" type="bus_bus" depart="1985.56" departLane="best" from="-586413246#18" to="-586413246#1"/>
    <trip id="bus44" type="bus_bus" depart="2031.73" departLane="best" from="-586413246#18" to="-9129472"/>
    <trip id="bus45" type="bus_bus" depart="2077.91" departLane="best" from="-586413246#4" to="540665092#6"/>
    <trip id="bus47" type="bus_bus" depart="2170.26" departLane="best" from="180244636#0" to="586413246#18"/>
    <trip id="bus49" type="bus_bus" depart="2262.61" departLane="best" from="-276157215#9" to="-9153734"/>
    <trip id="bus50" type="bus_bus" depart="2308.79" departLane="best" departSpeed="max" from="1209313234" to="169152446#0"/>
    <trip id="bus51" type="bus_bus" depart="2354.96" departLane="best" from="586002129" to="540665092#8"/>
    <trip id="bus53" type="bus_bus" depart="2447.31" departLane="best" from="656443274#5" to="-586413246#3"/>
    <trip id="bus54" type="bus_bus" depart="2493.49" departLane="best" from="-586077896#0" to="1315084524"/>
    <trip id="bus55" type="bus_bus" depart="2539.66" departLane="best" departSpeed="max" from="1209313234" to="656443273"/>
    <trip id="bus57" type="bus_bus" depart="2632.02" departLane="best" from="277745444" to="-180244636#7"/>
    <trip id="bus58" type="bus_bus" depart="2678.19" departLane="best" departSpeed="max" from="-631611869#1" to="586413246#18"/>
    <trip id="bus59" type="bus_bus" depart="2724.37" departLane="best" from="-1338769043" to="9152018#0"/>
    <trip id="bus60" type="bus_bus" depart="2770.54" departLane="best" from="-9142394#0" to="9152018#3"/>
    <trip id="bus61" type="bus_bus" depart="2816.72" departLane="best" from="283536956#1" to="-568382083#0"/>
    <trip id="bus62" type="bus_bus" depart="2862.89" departLane="best" from="276157218" to="586077896#0"/>
    <trip id="bus63" type="bus_bus" depart="2909.07" departLane="best" departSpeed="max" from="-180244639#2" to="283536956#1"/>
    <trip id="bus64" type="bus_bus" depart="2955.24" departLane="best" from="-180244639#1" to="631611869#1"/>
    <trip id="bus65" type="bus_bus" depart="3001.42" departLane="best" from="-540665092#4" to="9151585#1"/>
    <trip id="bus68" type="bus_bus" depart="3139.95" departLane="best" from="-276157215#2" to="9142394#1"/>
    <trip id="bus69" type="bus_bus" depart="3186.12" departLane="best" from="-586413246#0" to="-565255794"/>
    <trip id="bus70" type="bus_bus" depart="3232.30" departLane="best" from="-586413246#5" to="9142394#2"/>
    <trip id="bus72" type="bus_bus" depart="3324.65" departLane="best" from="9153734" to="9152018#3"/>
    <trip id="bus73" type="bus_bus" depart="3370.83" departLane="best" from="-276157215#0" to="586080833"/>
    <trip id="bus74" type="bus_bus" depart="3417.00" departLane="best" departSpeed="max" from="-631611869#1" to="9142394#1"/>
    <trip id="bus76" type="bus_bus" depart="3509.35" departLane="best" from="-540665092#6" to="-1209313234"/>
    <trip id="bus78" type="bus_bus" depart="3601.70" departLane="best" from="-287145656#2" to="276157215#4"/>
    <trip id="bus79" type="bus_bus" depart="3647.88" departLane="best" departSpeed="max" from="-631611869#1" to="343541421"/>
    <trip id="bus81" type="bus_bus" depart="3740.23" departLane="best" from="-540665092#1" to="-586413249#0"/>
    <trip id="bus82" type="bus_bus" depart="3786.41" departLane="best" from="180244636#7" to="-9129472"/>
    <trip id="bus83" type="bus_bus" depart="3832.58" departLane="best" from="-656443274#0" to="276157215#8"/>
    <trip id="bus84" type="bus_bus" depart="3878.76" departLane="best" departSpeed="max" from="1209313234" to="656443273"/>
    <trip id="bus85" type="bus_bus" depart="3924.93" departLane="best" from="1315094301" to="586413246#13"/>
    <trip id="bus86" type="bus_bus" depart="3971.11" departLane="best" from="-540665092#10" to="-586413246#8"/>
    <trip id="bus87" type="bus_bus" depart="4017.29" departLane="best" from="-276157215#0" to="-828146450#0"/>
    <trip id="bus90" type="bus_bus" depart="4155.81" departLane="best" from="-586413246#5" to="656443274#0"/>
    <trip id="bus94" type="bus_bus" depart="4340.52" departLane="best" from="-656443275" to="9152018#0"/>
    <trip id="bus95" type="bus_bus" depart="4386.69" departLane="best" from="180244636#3" to="586002130#1"/>
    <trip id="bus96" type="bus_bus" depart="4432.87" departLane="best" from="9137054#2" to="9142394#0"/>
    <trip id="bus97" type="bus_bus" depart="4479.04" departLane="best" from="-586413246#8" to="656443274#1"/>
    <trip id="bus98" type="bus_bus" depart="4525.22" departLane="best" from="586413246#2" to="-287145656#2"/>
    <trip id="bus99" type="bus_bus" depart="4571.39" departLane="best" from="-1338769044#2" to="-828146451"/>
    <trip id="bus100" type="bus_bus" depart="4617.57" departLane="best" from="180244636#1" to="-568382083#0"/>
    <trip id="bus101" type="bus_bus" depart="4663.75" departLane="best" from="9137054#1" to="656443274#1"/>
    <trip id="bus102" type="bus_bus" depart="4709.92" departLane="best" from="-9151585#4" to="273902603"/>
    <trip id="bus103" type="bus_bus" depart="4756.10" departLane="best" from="-9151585#0" to="-565255794"/>
    <trip id="bus104" type="bus_bus" depart="4802.27" departLane="best" from="-9142394#2" to="-586413249#0"/>
    <trip id="bus105" type="bus_bus" depart="4848.45" departLane="best" from="568382083#3" to="-828146451"/>
    <trip id="bus106" type="bus_bus" depart="4894.62" departLane="best" departSpeed="max" from="423728990" to="180244639#2"/>
    <trip id="bus108" type="bus_bus" depart="4986.98" departLane="best" from="-276157215#9" to="-568382083#0"/>
    <trip id="bus109" type="bus_bus" depart="5033.15" departLane="best" from="586002131#0" to="540665092#7"/>
    <trip id="bus112" type="bus_bus" depart="5171.68" departLane="best" from="568382083#0" to="-656443275"/>
    <trip id="bus114" type="bus_bus" depart="5264.03" departLane="best" from="-9152018#2" to="656443274#6"/>
    <trip id="bus115" type="bus_bus" depart="5310.21" departLane="best" from="9137054#2" to="540665092#9"/>
    <trip id="bus116" type="bus_bus" depart="5356.38" departLane="best" from="-828146450#0" to="276157215#2"/>
    <trip id="bus117" type="bus_bus" depart="5402.56" departLane="best" from="-1315084524" to="656443274#2"/>
    <trip id="bus118" type="bus_bus" depart="5448.73" departLane="best" from="129601762#2" to="586080833"/>
    <trip id="bus119" type="bus_bus" depart="5494.91" departLane="best" from="180244636#0" to="-9124791#0"/>
    <trip id="bus120" type="bus_bus" depart="5541.08" departLane="best" from="586413246#5" to="540665092#8"/>
    <trip id="bus121" type="bus_bus" depart="5587.26" departLane="best" from="-276157215#4" to="180244639#2"/>
    <trip id="bus123" type="bus_bus" depart="5679.61" departLane="best" from="533664762" to="-586413246#11"/>
    <trip id="bus124" type="bus_bus" depart="5725.79" departLane="best" from="-586080833" to="1338769044#1"/>
    <trip id="bus126" type="bus_bus" depart="5818.14" departLane="best" from="-540665092#7" to="-1209313234"/>
    <trip id="bus127" type="bus_bus" depart="5864.31" departLane="best" from="586077896#1" to="-586413246#13"/>
    <trip id="bus128" type="bus_bus" depart="5910.49" departLane="best" from="-287145656#2" to="9152018#0"/>
    <trip id="bus129" type="bus_bus" depart="5956.67" departLane="best" from="-551576182" to="9151585#0"/>
    <trip id="bus130" type="bus_bus" depart="6002.84" departLane="best" from="-276157215#1" to="-180244636#7"/>
    <trip id="bus131" type="bus_bus" depart="6049.02" departLane="best" from="-1338769044#0" to="586413246#7"/>
    <trip id="bus132" type="bus_bus" depart="6095.19" departLane="best" from="551574175#0" to="9152018#3"/>
    <trip id="bus133" type="bus_bus" depart="6141.37" departLane="best" from="568382083#0" to="180244639#2"/>
    <trip id="bus135" type="bus_bus" depart="6233.72" departLane="best" from="-586413246#8" to="533664762"/>
    <trip id="bus136" type="bus_bus" depart="6279.90" departLane="best" from="586413246#11" to="180244652#0"/>
    <trip id="bus137" type="bus_bus" depart="6326.07" departLane="best" from="-276157215#1" to="656443274#2"/>
    <trip id="bus139" type="bus_bus" depart="6418.42" departLane="best" from="-586413246#2" to="565255792#0"/>
    <trip id="bus141" type="bus_bus" depart="6510.77" departLane="best" departSpeed="max" from="-9152018#3" to="586077896#1"/>
    <trip id="bus143" type="bus_bus" depart="6603.13" departLane="best" from="656443274#4" to="-586413246#11"/>
    <trip id="bus144" type="bus_bus" depart="6649.30" departLane="best" from="129601761" to="1339425865#0"/>
    <trip id="bus145" type="bus_bus" depart="6695.48" departLane="best" departSpeed="max" from="-9152018#3" to="540665092#6"/>
    <trip id="bus147" type="bus_bus" depart="6787.83" departLane="best" from="531094133#1" to="1338769044#1"/>
    <trip id="bus148" type="bus_bus" depart="6834.00" departLane="best" from="180244636#4" to="533665196#1"/>
    <trip id="bus151" type="bus_bus" depart="6972.53" departLane="best" from="180244636#0" to="273902603"/>
    <trip id="bus153" type="bus_bus" depart="7064.88" departLane="best" from="180244636#0" to="-540665092#2"/>
    <trip id="bus154" type="bus_bus" depart="7111.06" departLane="best" departSpeed="max" from="-343541421" to="540665092#7"/>
    <trip id="bus155" type="bus_bus" depart="7157.23" departLane="best" from="565255792#7" to="586413246#11"/>
    <trip id="bus156" type="bus_bus" depart="7203.41" departLane="best" from="-540665092#7" to="343541421"/>
    <trip id="bus158" type="bus_bus" depart="7295.76" departLane="best" from="586413259#2" to="9151585#2"/>
    <trip id="bus162" type="bus_bus" depart="7480.46" departLane="best" from="276157224#0" to="586413246#14"/>
    <trip id="bus163" type="bus_bus" depart="7526.64" departLane="best" departSpeed="max" from="-343541421" to="9152018#3"/>
    <trip id="bus164" type="bus_bus" depart="7572.82" departLane="best" from="586413246#17" to="-9124791#0"/>
    <trip id="bus167" type="bus_bus" depart="7711.34" departLane="best" from="586002130#0" to="9151585#3"/>
    <trip id="bus168" type="bus_bus" depart="7757.52" departLane="best" departSpeed="max" from="-631611869#1" to="586413254#1"/>
    <trip id="bus169" type="bus_bus" depart="7803.69" departLane="best" departSpeed="max" from="828146451" to="-586413246#18"/>
    <trip id="bus170" type="bus_bus" depart="7849.87" departLane="best" from="1339425865#1" to="343541421"/>
    <trip id="bus171" type="bus_bus" depart="7896.05" departLane="best" from="-9151585#0" to="1339425865#0"/>
    <trip id="bus173" type="bus_bus" depart="7988.40" departLane="best" from="-276157215#4" to="-568382083#0"/>
    <trip id="bus176" type="bus_bus" depart="8126.92" departLane="best" from="565255794" to="-586413254#0"/>
    <trip id="bus179" type="bus_bus" depart="8265.45" departLane="best" from="568382083#2" to="-586080837"/>
    <trip id="bus180" type="bus_bus" depart="8311.63" departLane="best" from="180244636#5" to="-568382083#2"/>
    <trip id="bus181" type="bus_bus" depart="8357.80" departLane="best" from="-9151585#2" to="-180244652#2"/>
    <trip id="bus182" type="bus_bus" depart="8403.98" departLane="best" from="-656443274#1" to="276157224#0"/>
    <trip id="bus183" type="bus_bus" depart="8450.15" departLane="best" from="586077896#1" to="-586413246#12"/>
    <trip id="bus184" type="bus_bus" depart="8496.33" departLane="best" from="568382083#0" to="1315084524"/>
    <trip id="bus185" type="bus_bus" depart="8542.50" departLane="best" from="-276157215#8" to="-631653305#2"/>
    <trip id="bus187" type="bus_bus" depart="8634.86" departLane="best" from="828146451" to="-180244636#8"/>
    <trip id="bus188" type="bus_bus" depart="8681.03" departLane="best" from="180244628" to="129601762#1"/>
    <trip id="bus189" type="bus_bus" depart="8727.21" departLane="best" from="568382083#2" to="-180244636#7"/>
    <trip id="bus192" type="bus_bus" depart="8865.73" departLane="best" departSpeed="max" from="-180244639#2" to="540665092#11"/>
    <trip id="bus193" type="bus_bus" depart="8911.91" departLane="best" from="-9152018#0" to="-828146451"/>
    <trip id="bus194" type="bus_bus" depart="8958.09" departLane="best" from="-586413254#0" to="343541421"/>
    <trip id="bus195" type="bus_bus" depart="9004.26" departLane="best" from="-586413246#1" to="586077896#3"/>
    <trip id="bus196" type="bus_bus" depart="9050.44" departLane="best" from="-551576182" to="276157215#0"/>
    <trip id="bus198" type="bus_bus" depart="9142.79" departLane="best" from="-540665092#3" to="-9137054#1"/>
    <trip id="bus199" type="bus_bus" depart="9188.96" departLane="best" from="-540665092#7" to="-828146451"/>
    <trip id="bus202" type="bus_bus" depart="9327.49" departLane="best" from="180244636#8" to="-9153734"/>
    <trip id="bus203" type="bus_bus" depart="9373.67" departLane="best" from="180244628" to="540665092#10"/>
    <trip id="bus207" type="bus_bus" depart="9558.37" departLane="best" from="9137054#1" to="565245613"/>
    <trip id="bus208" type="bus_bus" depart="9604.55" departLane="best" from="586413259#0" to="276157215#2"/>
    <trip id="bus209" type="bus_bus" depart="9650.72" departLane="best" from="-1338769043" to="-828146451"/>
    <trip id="bus210" type="bus_bus" depart="9696.90" departLane="best" from="9124791#1" to="9151585#4"/>
    <trip id="bus211" type="bus_bus" depart="9743.07" departLane="best" departSpeed="max" from="-9152018#3" to="180244639#2"/>
    <trip id="bus212" type="bus_bus" depart="9789.25" departLane="best" from="-9151585#6" to="540665092#2"/>
    <trip id="bus213" type="bus_bus" depart="9835.42" departLane="best" from="568382083#3" to="-9137054#0"/>
    <trip id="bus215" type="bus_bus" depart="9927.78" departLane="best" from="586413246#0" to="-586077896#0"/>
    <trip id="bus216" type="bus_bus" depart="9973.95" departLane="best" departSpeed="max" from="423728990" to="-586413246#17"/>
    <trip id="bus217" type="bus_bus" depart="10020.13" departLane="best" from="-540665092#4" to="276157215#3"/>
    <trip id="bus218" type="bus_bus" depart="10066.30" departLane="best" from="277745444" to="276157215#8"/>
    <trip id="bus221" type="bus_bus" depart="10204.83" departLane="best" departSpeed="max" from="-631611869#1" to="586413267#1"/>
    <trip id="bus222" type="bus_bus" depart="10251.01" departLane="best" from="-9151585#3" to="-586413246#18"/>
    <trip id="bus223" type="bus_bus" depart="10297.18" departLane="best" departSpeed="max" from="9137054#0" to="180244639#2"/>
    <trip id="bus224" type="bus_bus" depart="10343.36" departLane="best" from="-631653305#2" to="586413246#3"/>
    <trip id="bus225" type="bus_bus" depart="10389.53" departLane="best" departSpeed="max" from="-9152018#3" to="9142394#1"/>
    <trip id="bus227" type="bus_bus" depart="10481.88" departLane="best" from="180244636#7" to="540665092#10"/>
    <trip id="bus229" type="bus_bus" depart="10574.24" departLane="best" from="287145656#3" to="-586413246#15"/>
    <trip id="bus231" type="bus_bus" depart="10666.59" departLane="best" from="-276157215#4" to="1338769044#0"/>
    <trip id="bus232" type="bus_bus" depart="10712.76" departLane="best" from="568382083#1" to="9151585#2"/>
    <trip id="bus233" type="bus_bus" depart="10758.94" departLane="best" from="-540665092#4" to="631611869#1"/>
    <trip id="bus234" type="bus_bus" depart="10805.11" departLane="best" from="-9151585#1" to="-828146451"/>
    <trip id="bus235" type="bus_bus" depart="10851.29" departLane="best" from="568382083#0" to="586413246#0"/>
    <trip id="bus236" type="bus_bus" depart="10897.47" departLane="best" departSpeed="max" from="828146451" to="-180244636#1"/>
    <trip id="bus238" type="bus_bus" depart="10989.82" departLane="best" from="283536958" to="586413246#4"/>
    <trip id="bus239" type="bus_bus" depart="11035.99" departLane="best" from="-540665092#8" to="276157215#2"/>
    <trip id="bus240" type="bus_bus" depart="11082.17" departLane="best" from="-1338769044#0" to="586413246#8"/>
    <trip id="bus242" type="bus_bus" depart="11174.52" departLane="best" from="-540665092#4" to="129601762#1"/>
    <trip id="bus243" type="bus_bus" depart="11220.70" departLane="best" from="-540665092#10" to="9152018#0"/>
    <trip id="bus244" type="bus_bus" depart="11266.87" departLane="best" from="-586413249#0" to="631611869#1"/>
    <trip id="bus246" type="bus_bus" depart="11359.22" departLane="best" from="-287145656#4" to="276157224#1"/>
    <trip id="bus247" type="bus_bus" depart="11405.40" departLane="best" from="-9152018#1" to="656443274#5"/>
    <trip id="bus248" type="bus_bus" depart="11451.57" departLane="best" from="-9151585#2" to="540665092#2"/>
    <trip id="bus249" type="bus_bus" depart="11497.75" departLane="best" from="-631653305#2" to="276157215#9"/>
    <trip id="bus250" type="bus_bus" depart="11543.93" departLane="best" from="-656443274#2" to="586413246#6"/>
    <trip id="bus251" type="bus_bus" depart="11590.10" departLane="best" departSpeed="max" from="423728990" to="-9129472"/>
    <trip id="bus252" type="bus_bus" depart="11636.28" departLane="best" from="565245613" to="-568382083#1"/>
    <trip id="bus253" type="bus_bus" depart="11682.45" departLane="best" from="-540665092#8" to="631611869#0"/>
    <trip id="bus254" type="bus_bus" depart="11728.63" departLane="best" from="586002130#0" to="276157215#6"/>
    <trip id="bus257" type="bus_bus" depart="11867.16" departLane="best" from="586413263#1" to="-180244636#4"/>
    <trip id="bus259" type="bus_bus" depart="11959.51" departLane="best" from="-9142394#2" to="533665196#1"/>
    <trip id="bus260" type="bus_bus" depart="12005.68" departLane="best" from="568382083#2" to="9152018#1"/>
    <trip id="bus261" type="bus_bus" depart="12051.86" departLane="best" from="-9142394#3" to="586413246#8"/>
    <trip id="bus262" type="bus_bus" depart="12098.03" departLane="best" departSpeed="max" from="-9142394#5" to="586413246#3"/>
    <trip id="bus263" type="bus_bus" depart="12144.21" departLane="best" from="287145656#0" to="-586413246#15"/>
    <trip id="bus264" type="bus_bus" depart="12190.39" departLane="best" from="586413263#1" to="-9137054#1"/>
    <trip id="bus265" type="bus_bus" depart="12236.56" departLane="best" from="-828146450#0" to="9151585#1"/>
    <trip id="bus266" type="bus_bus" depart="12282.74" departLane="best" from="533665196#1" to="9142394#5"/>
    <trip id="bus270" type="bus_bus" depart="12467.44" departLane="best" departSpeed="max" from="-9142394#5" to="129601762#2"/>
    <trip id="bus272" type="bus_bus" depart="12559.79" departLane="best" from="-540665092#9" to="533665191"/>
    <trip id="bus273" type="bus_bus" depart="12605.97" departLane="best" departSpeed="max" from="-343541421" to="276157215#9"/>
    <trip id="bus274" type="bus_bus" depart="12652.14" departLane="best" from="-180244652#2" to="-586413246#11"/>
    <trip id="bus276" type="bus_bus" depart="12744.49" departLane="best" from="-540665092#10" to="-9124791#0"/>
    <trip id="bus277" type="bus_bus" depart="12790.67" departLane="best" from="-1339425865#0" to="586413246#3"/>
    <trip id="bus279" type="bus_bus" depart="12883.02" departLane="best" from="-551576182" to="-180244636#8"/>
    <trip id="bus280" type="bus_bus" depart="12929.20" departLane="best" from="586002131#0" to="-180244652#3"/>
    <trip id="bus281" type="bus_bus" depart="12975.37" departLane="best" from="586002130#1" to="-180244636#1"/>
    <trip id="bus282" type="bus_bus" depart="13021.55" departLane="best" from="-287145656#3" to="180244639#1"/>
    <trip id="bus284" type="bus_bus" depart="13113.90" departLane="best" from="-276157215#2" to="1338769044#1"/>
    <trip id="bus285" type="bus_bus" depart="13160.08" departLane="best" from="-9142394#2" to="180244639#0"/>
    <trip id="bus286" type="bus_bus" depart="13206.25" departLane="best" from="180244636#3" to="9142394#4"/>
    <trip id="bus287" type="bus_bus" depart="13252.43" departLane="best" from="565255792#2" to="-180244636#7"/>
    <trip id="bus289" type="bus_bus" depart="13344.78" departLane="best" from="-276157215#2" to="343541421"/>
    <trip id="bus290" type="bus_bus" depart="13390.95" departLane="best" from="-540665092#0" to="276157215#2"/>
    <trip id="bus291" type="bus_bus" depart="13437.13" departLane="best" from="-276157215#5" to="1338769043"/>
    <trip id="bus292" type="bus_bus" depart="13483.31" departLane="best" departSpeed="max" from="423728990" to="-276157217"/>
    <trip id="bus293" type="bus_bus" depart="13529.48" departLane="best" from="565255792#7" to="631611869#1"/>
    <trip id="bus294" type="bus_bus" depart="13575.66" departLane="best" from="-540665092#5" to="-586413246#12"/>
    <trip id="bus295" type="bus_bus" depart="13621.83" departLane="best" from="568382083#0" to="-586080837"/>
    <trip id="bus296" type="bus_bus" depart="13668.01" departLane="best" from="-1315094301" to="-586413246#13"/>
    <trip id="bus298" type="bus_bus" depart="13760.36" departLane="best" departSpeed="max" from="1209313234" to="540665092#5"/>
    <trip id="bus299" type="bus_bus" depart="13806.54" departLane="best" departSpeed="max" from="9137054#0" to="-180244652#0"/>
    <trip id="bus300" type="bus_bus" depart="13852.71" departLane="best" from="586413266#2" to="276157215#8"/>
    <trip id="bus301" type="bus_bus" depart="13898.89" departLane="best" from="-276157215#9" to="586002130#2"/>
    <trip id="bus302" type="bus_bus" depart="13945.06" departLane="best" from="586413256" to="276157215#5"/>
    <trip id="bus303" type="bus_bus" depart="13991.24" departLane="best" from="568382083#1" to="9151585#4"/>
    <trip id="bus304" type="bus_bus" depart="14037.41" departLane="best" departSpeed="max" from="423728990" to="-9124791#1"/>
    <trip id="bus306" type="bus_bus" depart="14129.77" departLane="best" from="-540665092#7" to="-586413246#11"/>
    <trip id="bus307" type="bus_bus" depart="14175.94" departLane="best" from="-287145656#2" to="631611869#1"/>
    <trip id="bus308" type="bus_bus" depart="14222.12" departLane="best" departSpeed="max" from="-9142394#5" to="586413246#1"/>
    <trip id="bus309" type="bus_bus" depart="14268.29" departLane="best" from="-656443273" to="9151585#6"/>
    <trip id="bus310" type="bus_bus" depart="14314.47" departLane="best" from="586413259#1" to="343541421"/>
    <trip id="bus311" type="bus_bus" depart="14360.64" departLane="best" departSpeed="max" from="9137054#0" to="586413266#2"/>
    <trip id="bus313" type="bus_bus" depart="14452.99" departLane="best" from="565255794" to="-828146451"/>
    <trip id="bus315" type="bus_bus" depart="14545.35" departLane="best" from="828146451" to="276157215#9"/>
    <trip id="bus316" type="bus_bus" depart="14591.52" departLane="best" from="-9152018#1" to="540665092#0"/>
    <trip id="bus317" type="bus_bus" depart="14637.70" departLane="best" from="586002130#1" to="-586080837"/>
    <trip id="bus319" type="bus_bus" depart="14730.05" departLane="best" from="586413246#15" to="-276157217"/>
    <trip id="bus320" type="bus_bus" depart="14776.22" departLane="best" from="540665092#4" to="343541421"/>
    <trip id="bus321" type="bus_bus" depart="14822.40" departLane="best" from="551574176#0" to="631611869#0"/>
    <trip id="bus322" type="bus_bus" depart="14868.58" departLane="best" from="-540665092#9" to="-180244636#6"/>
    <trip id="bus323" type="bus_bus" depart="14914.75" departLane="best" from="129601762#2" to="631611869#0"/>
    <trip id="bus324" type="bus_bus" depart="14960.93" departLane="best" departSpeed="max" from="1209313234" to="656443274#1"/>
    <trip id="bus325" type="bus_bus" depart="15007.10" departLane="best" from="565245613" to="-180244636#6"/>
    <trip id="bus326" type="bus_bus" depart="15053.28" departLane="best" from="551574175#0" to="-180244636#5"/>
    <trip id="bus327" type="bus_bus" depart="15099.45" departLane="best" from="-9151585#6" to="287145656#4"/>
    <trip id="bus328" type="bus_bus" depart="15145.63" departLane="best" from="-1338769043" to="-828146450#0"/>
    <trip id="bus331" type="bus_bus" depart="15284.16" departLane="best" from="-1338769043" to="586002131#2"/>
    <trip id="bus332" type="bus_bus" depart="15330.33" departLane="best" from="565255794" to="180244639#0"/>
    <trip id="bus333" type="bus_bus" depart="15376.51" departLane="best" from="-9129472" to="656443274#1"/>