<?xml version="1.0" encoding="UTF-8"?>

<!-- generated on 2025-03-03 18:44:07.237208 by osmWebWizard.py v1_21_0+0000-d7b3b481c43
<configuration>
    <net-file value="C:\Users\evans\Sumo\2025-03-03-18-43-58\osm.net.xml.gz"/>
    <output-trip-file value="C:\Users\evans\Sumo\2025-03-03-18-43-58\osm.truck.trips.xml"/>
    <route-file value="C:\Users\evans\Sumo\2025-03-03-18-43-58\osm.truck.rou.xml"/>
    <prefix value="truck"/>
    <trip-attributes value="departLane=&quot;best&quot;"/>
    <fringe-start-attributes value="departSpeed=&quot;max&quot;"/>
    <vehicle-class value="truck"/>
    <fringe-factor value="5"/>
    <vclass value="truck"/>
    <via-edge-types value="highway.motorway,highway.motorway_link,highway.trunk_link,highway.primary_link,highway.secondary_link,highway.tertiary_link"/>
    <min-distance value="600.0"/>
    <min-distance.fringe value="10.0"/>
    <remove-loops value="True"/>
    <validate value="True"/>
    <end value="86400.0"/>
    <insertion-density value="8.0"/>
</configuration>
-->

<!-- generated on 2025-03-03 18:44:07 by Eclipse SUMO duarouter Version 1.21.0
<duarouterConfiguration xmlns:xsi="http://www.w3.org/2001/XMLSchema-instance" xsi:noNamespaceSchemaLocation="http://sumo.dlr.de/xsd/duarouterConfiguration.xsd">

    <input>
        <net-file value="C:\Users\evans\Sumo\2025-03-03-18-43-58\osm.net.xml.gz"/>
        <route-files value="C:\Users\evans\Sumo\2025-03-03-18-43-58\osm.truck.trips.xml"/>
    </input>

    <output>
        <output-file value="C:\Users\evans\Sumo\2025-03-03-18-43-58\osm.truck.trips.xml.tmp"/>
        <alternatives-output value="NUL"/>
        <write-trips value="true"/>
    </output>

    <processing>
        <remove-loops value="true"/>
    </processing>

    <time>
        <begin value="0.0"/>
        <end value="86400.0"/>
    </time>

    <report>
        <no-warnings value="true"/>
        <ignore-errors value="true"/>
        <no-step-log value="true"/>
    </report>

</duarouterConfiguration>
-->

<routes xmlns:xsi="http://www.w3.org/2001/XMLSchema-instance" xsi:noNamespaceSchemaLocation="http://sumo.dlr.de/xsd/routes_file.xsd">
    <vType id="truck_truck" vClass="truck"/>
    <trip id="truck0" type="truck_truck" depart="0.00" departLane="best" from="533665191" to="1338769044#0"/>
    <trip id="truck1" type="truck_truck" depart="23.37" departLane="best" from="828146451" to="276157215#3"/>
    <trip id="truck3" type="truck_truck" depart="70.11" departLane="best" from="-540665092#10" to="276157215#2"/>
    <trip id="truck4" type="truck_truck" depart="93.48" departLane="best" from="-586413246#12" to="283536957"/>
    <trip id="truck6" type="truck_truck" depart="140.23" departLane="best" from="-9142394#0" to="-9124791#1"/>
    <trip id="truck7" type="truck_truck" depart="163.60" departLane="best" from="586413266#1" to="343541421"/>
    <trip id="truck8" type="truck_truck" depart="186.97" departLane="best" from="586413246#2" to="-568382083#3"/>
    <trip id="truck9" type="truck_truck" depart="210.34" departLane="best" from="565255792#3" to="-180244636#5"/>
    <trip id="truck10" type="truck_truck" depart="233.71" departLane="best" from="586413246#14" to="-656443273"/>
    <trip id="truck11" type="truck_truck" depart="257.08" departLane="best" from="-276157215#9" to="-586413249#1"/>
    <trip id="truck12" type="truck_truck" depart="280.45" departLane="best" from="-586413254#0" to="9142394#3"/>
    <trip id="truck13" type="truck_truck" depart="303.82" departLane="best" from="540665092#1" to="343541421"/>
    <trip id="truck14" type="truck_truck" depart="327.19" departLane="best" from="-828146450#0" to="586413246#6"/>
    <trip id="truck15" type="truck_truck" depart="350.56" departLane="best" from="180244628" to="9142394#5"/>
    <trip id="truck16" type="truck_truck" depart="373.93" departLane="best" from="-540665092#2" to="9151585#1"/>
    <trip id="truck17" type="truck_truck" depart="397.30" departLane="best" from="277745444" to="586413246#5"/>
    <trip id="truck18" type="truck_truck" depart="420.68" departLane="best" from="-9152018#0" to="586077896#3"/>
    <trip id="truck19" type="truck_truck" depart="444.05" departLane="best" from="9153734" to="180244639#2"/>
    <trip id="truck21" type="truck_truck" depart="490.79" departLane="best" from="586413246#14" to="-9153734"/>
    <trip id="truck22" type="truck_truck" depart="514.16" departLane="best" departSpeed="max" from="-180244639#2" to="9142394#1"/>
    <trip id="truck23" type="truck_truck" depart="537.53" departLane="best" from="-9152018#2" to="273902603"/>
    <trip id="truck24" type="truck_truck" depart="560.90" departLane="best" from="-1315084524" to="9142394#5"/>
    <trip id="truck25" type="truck_truck" depart="584.27" departLane="best" from="656443274#3" to="-586413246#5"/>
    <trip id="truck26" type="truck_truck" depart="607.64" departLane="best" from="180244637#0" to="540665092#9"/>
    <trip id="truck27" type="truck_truck" depart="631.01" departLane="best" from="-586413246#0" to="273902603"/>
    <trip id="truck28" type="truck_truck" depart="654.38" departLane="best" from="-656443274#5" to="180244637#0"/>
    <trip id="truck29" type="truck_truck" depart="677.76" departLane="best" from="-180244652#0" to="586080833"/>
    <trip id="truck31" type="truck_truck" depart="724.50" departLane="best" from="9153734" to="-568382083#3"/>
    <trip id="truck32" type="truck_truck" depart="747.87" departLane="best" from="-276157215#5" to="-568382083#3"/>
    <trip id="truck33" type="truck_truck" depart="771.24" departLane="best" from="-9152018#2" to="540665092#10"/>
    <trip id="truck34" type="truck_truck" depart="794.61" departLane="best" from="129601761" to="-180244652#2"/>
    <trip id="truck35" type="truck_truck" depart="817.98" departLane="best" from="586413246#15" to="-586077896#3"/>
    <trip id="truck36" type="truck_truck" depart="841.35" departLane="best" from="-586413246#15" to="-9137054#1"/>
    <trip id="truck37" type="truck_truck" depart="864.72" departLane="best" from="-631611869#0" to="-180244652#2"/>
    <trip id="truck41" type="truck_truck" depart="958.21" departLane="best" from="-276157215#8" to="129601762#1"/>
    <trip id="truck42" type="truck_truck" depart="981.58" departLane="best" from="9153734" to="-180244636#1"/>
    <trip id="truck43" type="truck_truck" depart="1004.95" departLane="best" from="631653305#0" to="-586413246#17"/>
    <trip id="truck45" type="truck_truck" depart="1051.69" departLane="best" from="129601762#0" to="631611869#1"/>
    <trip id="truck46" type="truck_truck" depart="1075.06" departLane="best" from="276157217" to="-180244636#6"/>
    <trip id="truck47" type="truck_truck" depart="1098.43" departLane="best" from="180244636#3" to="-586077896#0"/>
    <trip id="truck48" type="truck_truck" depart="1121.80" departLane="best" from="-9142394#0" to="9152018#3"/>
    <trip id="truck49" type="truck_truck" depart="1145.17" departLane="best" from="-276157224#0" to="565255794"/>
    <trip id="truck50" type="truck_truck" depart="1168.54" departLane="best" from="-9142394#4" to="283536956#1"/>
    <trip id="truck51" type="truck_truck" depart="1191.91" departLane="best" from="-276157215#6" to="586002131#1"/>
    <trip id="truck52" type="truck_truck" depart="1215.29" departLane="best" departSpeed="max" from="-180244639#2" to="283536956#2"/>
    <trip id="truck53" type="truck_truck" depart="1238.66" departLane="best" from="-540665092#11" to="9151585#2"/>
    <trip id="truck54" type="truck_truck" depart="1262.03" departLane="best" from="-276157215#1" to="-565255794"/>
    <trip id="truck57" type="truck_truck" depart="1332.14" departLane="best" from="828146450#0" to="-586413246#16"/>
    <trip id="truck59" type="truck_truck" depart="1378.88" departLane="best" from="-276157215#0" to="9142394#2"/>
    <trip id="truck60" type="truck_truck" depart="1402.25" departLane="best" from="-586413246#18" to="9151585#1"/>
    <trip id="truck61" type="truck_truck" depart="1425.62" departLane="best" from="9153734" to="9152018#3"/>
    <trip id="truck62" type="truck_truck" depart="1448.99" departLane="best" departSpeed="max" from="423728990" to="9152018#3"/>
    <trip id="truck63" type="truck_truck" depart="1472.36" departLane="best" from="-540665092#11" to="-1209313234"/>
    <trip id="truck64" type="truck_truck" depart="1495.74" departLane="best" from="586413246#6" to="-656443274#2"/>
    <trip id="truck66" type="truck_truck" depart="1542.48" departLane="best" departSpeed="max" from="-631611869#1" to="343541421"/>
    <trip id="truck67" type="truck_truck" depart="1565.85" departLane="best" from="180244636#4" to="-9137054#1"/>
    <trip id="truck68" type="truck_truck" depart="1589.22" departLane="best" from="586413263#1" to="276157215#5"/>
    <trip id="truck69" type="truck_truck" depart="1612.59" departLane="best" from="1315094301" to="586413246#11"/>
    <trip id="truck70" type="truck_truck" depart="1635.96" departLane="best" from="551574175#1" to="586413246#4"/>
    <trip id="truck71" type="truck_truck" depart="1659.33" departLane="best" from="568382083#2" to="276157215#5"/>
    <trip id="truck72" type="truck_truck" depart="1682.70" departLane="best" departSpeed="max" from="828146451" to="276157215#3"/>
    <trip id="truck74" type="truck_truck" depart="1729.44" departLane="best" from="586413246#15" to="631611869#1"/>
    <trip id="truck75" type="truck_truck" depart="1752.82" departLane="best" departSpeed="max" from="828146451" to="-568382083#3"/>
    <trip id="truck76" type="truck_truck" depart="1776.19" departLane="best" from="-586413246#1" to="656443274#5"/>
    <trip id="truck78" type="truck_truck" depart="1822.93" departLane="best" from="-656443273" to="9152018#0"/>
    <trip id="truck79" type="truck_truck" depart="1846.30" departLane="best" from="-586413246#4" to="656443274#5"/>
    <trip id="truck80" type="truck_truck" depart="1869.67" departLane="best" from="180244636#1" to="586002130#0"/>
    <trip id="truck81" type="truck_truck" depart="1893.04" departLane="best" from="9137054#2" to="9142394#1"/>
    <trip id="truck82" type="truck_truck" depart="1916.41" departLane="best" from="586413246#17" to="-631653305#2"/>
    <trip id="truck83" type="truck_truck" depart="1939.78" departLane="best" from="586413246#12" to="276157224#1"/>
    <trip id="truck84" type="truck_truck" depart="1963.15" departLane="best" from="-656443274#1" to="631611869#1"/>
    <trip id="truck85" type="truck_truck" depart="1986.52" departLane="best" from="-586413246#12" to="586413256"/>
    <trip id="truck87" type="truck_truck" depart="2033.27" departLane="best" from="9137054#1" to="-631653305#2"/>
    <trip id="truck88" type="truck_truck" depart="2056.64" departLane="best" from="-9142394#4" to="-586413249#1"/>
    <trip id="truck89" type="truck_truck" depart="2080.01" departLane="best" from="-533665196#1" to="9151585#2"/>
    <trip id="truck90" type="truck_truck" depart="2103.38" departLane="best" from="-9151585#4" to="273902603"/>
    <trip id="truck91" type="truck_truck" depart="2126.75" departLane="best" from="-9151585#0" to="540665092#9"/>
    <trip id="truck92" type="truck_truck" depart="2150.12" departLane="best" from="-9142394#2" to="-586413246#5"/>
    <trip id="truck94" type="truck_truck" depart="2196.86" departLane="best" from="-9151585#2" to="283536956#0"/>
    <trip id="truck95" type="truck_truck" depart="2220.23" departLane="best" from="-276157215#5" to="565255794"/>
    <trip id="truck96" type="truck_truck" depart="2243.60" departLane="best" from="-540665092#5" to="-828146451"/>
    <trip id="truck97" type="truck_truck" depart="2266.97" departLane="best" from="-828146450#0" to="631611869#1"/>
    <trip id="truck98" type="truck_truck" depart="2290.35" departLane="best" from="-656443274#6" to="9151585#5"/>
    <trip id="truck99" type="truck_truck" depart="2313.72" departLane="best" from="-9152018#1" to="656443274#1"/>
    <trip id="truck100" type="truck_truck" depart="2337.09" departLane="best" departSpeed="max" from="-343541421" to="9152018#2"/>
    <trip id="truck102" type="truck_truck" depart="2383.83" departLane="best" departSpeed="max" from="828146451" to="343541421"/>
    <trip id="truck103" type="truck_truck" depart="2407.20" departLane="best" from="-656443274#3" to="276157215#3"/>
    <trip id="truck104" type="truck_truck" depart="2430.57" departLane="best" from="-540665092#11" to="-180244636#0"/>
    <trip id="truck105" type="truck_truck" depart="2453.94" departLane="best" from="586413246#15" to="540665092#6"/>
    <trip id="truck106" type="truck_truck" depart="2477.31" departLane="best" from="-276157215#3" to="-180244652#0"/>
    <trip id="truck107" type="truck_truck" depart="2500.68" departLane="best" from="-540665092#8" to="-586080837"/>
    <trip id="truck109" type="truck_truck" depart="2547.42" departLane="best" from="-540665092#2" to="-1209313234"/>
    <trip id="truck110" type="truck_truck" depart="2570.80" departLane="best" from="586002130#0" to="586413246#11"/>
    <trip id="truck111" type="truck_truck" depart="2594.17" departLane="best" from="-540665092#8" to="9151585#1"/>
    <trip id="truck112" type="truck_truck" depart="2617.54" departLane="best" from="-180244652#2" to="-180244636#6"/>
    <trip id="truck113" type="truck_truck" depart="2640.91" departLane="best" from="-540665092#6" to="9152018#3"/>
    <trip id="truck115" type="truck_truck" depart="2687.65" departLane="best" from="828146451" to="343541421"/>
    <trip id="truck116" type="truck_truck" depart="2711.02" departLane="best" from="565255794" to="180244639#2"/>
    <trip id="truck117" type="truck_truck" depart="2734.39" departLane="best" from="-586413246#4" to="533664762"/>
    <trip id="truck119" type="truck_truck" depart="2781.13" departLane="best" from="-276157215#0" to="-631653305#2"/>
    <trip id="truck120" type="truck_truck" depart="2804.50" departLane="best" departSpeed="max" from="-631611869#1" to="-828146451"/>
    <trip id="truck122" type="truck_truck" depart="2851.25" departLane="best" from="-586413246#15" to="565245613"/>
    <trip id="truck123" type="truck_truck" depart="2874.62" departLane="best" from="565255792#4" to="180244639#0"/>
    <trip id="truck124" type="truck_truck" depart="2897.99" departLane="best" departSpeed="max" from="-9152018#3" to="-568382083#2"/>
    <trip id="truck125" type="truck_truck" depart="2921.36" departLane="best" from="-276157215#9" to="343541421"/>
    <trip id="truck126" type="truck_truck" depart="2944.73" departLane="best" from="586413246#12" to="-586077896#3"/>
    <trip id="truck127" type="truck_truck" depart="2968.10" departLane="best" departSpeed="max" from="1209313234" to="1339425865#0"/>
    <trip id="truck128" type="truck_truck" depart="2991.47" departLane="best" from="-9152018#2" to="540665092#4"/>
    <trip id="truck130" type="truck_truck" depart="3038.21" departLane="best" from="180244636#3" to="533665196#1"/>
    <trip id="truck132" type="truck_truck" depart="3084.95" departLane="best" from="-180244639#0" to="9142394#0"/>
    <trip id="truck133" type="truck_truck" depart="3108.33" departLane="best" from="180244628" to="-828146451"/>
    <trip id="truck134" type="truck_truck" depart="3131.70" departLane="best" from="-1339425865#1" to="276157215#0"/>
    <trip id="truck135" type="truck_truck" depart="3155.07" departLane="best" from="9153734" to="-9137054#0"/>
    <trip id="truck136" type="truck_truck" depart="3178.44" departLane="best" from="-540665092#10" to="-586413246#15"/>
    <trip id="truck138" type="truck_truck" depart="3225.18" departLane="best" from="180244636#0" to="-540665092#1"/>
    <trip id="truck139" type="truck_truck" depart="3248.55" departLane="best" departSpeed="max" from="-343541421" to="540665092#6"/>
    <trip id="truck140" type="truck_truck" depart="3271.92" departLane="best" from="-540665092#5" to="343541421"/>
    <trip id="truck141" type="truck_truck" depart="3295.29" departLane="best" from="-276157224#1" to="1338769044#1"/>
    <trip id="truck142" type="truck_truck" depart="3318.66" departLane="best" from="-9142394#1" to="9151585#1"/>
    <trip id="truck144" type="truck_truck" depart="3365.41" departLane="best" from="276157217" to="586413246#12"/>
    <trip id="truck145" type="truck_truck" depart="3388.78" departLane="best" departSpeed="max" from="-343541421" to="9152018#3"/>
    <trip id="truck146" type="truck_truck" depart="3412.15" departLane="best" from="586413246#11" to="-9137054#0"/>
    <trip id="truck148" type="truck_truck" depart="3458.89" departLane="best" from="-180244639#0" to="-9129472"/>
    <trip id="truck149" type="truck_truck" depart="3482.26" departLane="best" from="531094133#1" to="586413259#3"/>
    <trip id="truck151" type="truck_truck" depart="3529.00" departLane="best" departSpeed="max" from="1209313234" to="-568382083#3"/>
    <trip id="truck152" type="truck_truck" depart="3552.37" departLane="best" from="656443274#5" to="-586413246#15"/>
    <trip id="truck153" type="truck_truck" depart="3575.74" departLane="best" from="-1338769044#2" to="343541421"/>
    <trip id="truck154" type="truck_truck" depart="3599.11" departLane="best" from="-9151585#0" to="1339425865#0"/>
    <trip id="truck155" type="truck_truck" depart="3622.48" departLane="best" from="-276157215#3" to="565255794"/>
    <trip id="truck156" type="truck_truck" depart="3645.86" departLane="best" from="180244636#4" to="586077896#3"/>
    <trip id="truck157" type="truck_truck" depart="3669.23" departLane="best" from="-276157215#5" to="586080833"/>
    <trip id="truck158" type="truck_truck" depart="3692.60" departLane="best" from="-287145656#3" to="-180244636#4"/>
    <trip id="truck159" type="truck_truck" depart="3715.97" departLane="best" from="565255792#2" to="586413246#7"/>
    <trip id="truck161" type="truck_truck" depart="3762.71" departLane="best" from="-276157215#4" to="586080833"/>
    <trip id="truck162" type="truck_truck" depart="3786.08" departLane="best" from="180244636#3" to="-568382083#1"/>
    <trip id="truck163" type="truck_truck" depart="3809.45" departLane="best" from="-9151585#2" to="273902603"/>
    <trip id="truck164" type="truck_truck" depart="3832.82" departLane="best" from="568382083#2" to="-586413246#0"/>
    <trip id="truck165" type="truck_truck" depart="3856.19" departLane="best" from="-540665092#9" to="1315084524"/>
    <trip id="truck167" type="truck_truck" depart="3902.94" departLane="best" from="-1339425865#1" to="1315084524"/>
    <trip id="truck168" type="truck_truck" depart="3926.31" departLane="best" from="-565255794" to="-180244636#7"/>
    <trip id="truck170" type="truck_truck" depart="3973.05" departLane="best" from="-180244639#1" to="-540665092#0"/>
    <trip id="truck171" type="truck_truck" depart="3996.42" departLane="best" from="-9152018#1" to="287145656#4"/>
    <trip id="truck172" type="truck_truck" depart="4019.79" departLane="best" from="586002130#1" to="343541421"/>
    <trip id="truck173" type="truck_truck" depart="4043.16" departLane="best" from="129601762#0" to="631611869#1"/>
    <trip id="truck174" type="truck_truck" depart="4066.53" departLane="best" from="-9152018#0" to="656443274#5"/>
    <trip id="truck175" type="truck_truck" depart="4089.90" departLane="best" departSpeed="max" from="423728990" to="343541421"/>
    <trip id="truck176" type="truck_truck" depart="4113.27" departLane="best" from="-586080833" to="-568382083#3"/>
    <trip id="truck177" type="truck_truck" depart="4136.64" departLane="best" from="-1315084524" to="1338769044#1"/>
    <trip id="truck180" type="truck_truck" depart="4206.76" departLane="best" from="-540665092#1" to="-9137054#2"/>
    <trip id="truck181" type="truck_truck" depart="4230.13" departLane="best" from="586413249#1" to="-180244652#2"/>
    <trip id="truck184" type="truck_truck" depart="4300.24" departLane="best" from="180244636#6" to="276157215#1"/>
    <trip id="truck185" type="truck_truck" depart="4323.61" departLane="best" from="180244636#8" to="129601762#1"/>
    <trip id="truck186" type="truck_truck" depart="4346.98" departLane="best" from="9124791#1" to="-586413246#17"/>
    <trip id="truck187" type="truck_truck" depart="4370.35" departLane="best" from="-540665092#7" to="-586413246#7"/>
    <trip id="truck188" type="truck_truck" depart="4393.72" departLane="best" from="180244636#8" to="586077896#1"/>
    <trip id="truck189" type="truck_truck" depart="4417.09" departLane="best" from="-9129472" to="551576182"/>
    <trip id="truck190" type="truck_truck" depart="4440.47" departLane="best" from="-540665092#7" to="631611869#1"/>
    <trip id="truck191" type="truck_truck" depart="4463.84" departLane="best" from="9137054#1" to="565245613"/>
    <trip id="truck192" type="truck_truck" depart="4487.21" departLane="best" from="9124791#1" to="9151585#5"/>
    <trip id="truck193" type="truck_truck" depart="4510.58" departLane="best" from="-9152018#2" to="-180244652#0"/>
    <trip id="truck194" type="truck_truck" depart="4533.95" departLane="best" from="-9151585#6" to="540665092#2"/>
    <trip id="truck197" type="truck_truck" depart="4604.06" departLane="best" from="586002131#1" to="-568382083#1"/>
    <trip id="truck198" type="truck_truck" depart="4627.43" departLane="best" from="276157217" to="9142394#0"/>
    <trip id="truck199" type="truck_truck" depart="4650.80" departLane="best" departSpeed="max" from="423728990" to="-586413246#13"/>
    <trip id="truck200" type="truck_truck" depart="4674.17" departLane="best" from="-540665092#2" to="276157215#4"/>
    <trip id="truck202" type="truck_truck" depart="4720.92" departLane="best" from="586413256" to="180244639#2"/>
    <trip id="truck203" type="truck_truck" depart="4744.29" departLane="best" from="565255792#7" to="180244639#2"/>
    <trip id="truck204" type="truck_truck" depart="4767.66" departLane="best" departSpeed="max" from="-631611869#1" to="586413266#1"/>
    <trip id="truck205" type="truck_truck" depart="4791.03" departLane="best" from="276157218" to="9142394#1"/>
    <trip id="truck206" type="truck_truck" depart="4814.40" departLane="best" departSpeed="max" from="9137054#0" to="180244639#2"/>
    <trip id="truck207" type="truck_truck" depart="4837.77" departLane="best" departSpeed="max" from="-631611869#1" to="586413246#18"/>
    <trip id="truck208" type="truck_truck" depart="4861.14" departLane="best" departSpeed="max" from="-9152018#3" to="9142394#2"/>
    <trip id="truck209" type="truck_truck" depart="4884.51" departLane="best" from="-180244639#0" to="586413259#0"/>
    <trip id="truck210" type="truck_truck" depart="4907.88" departLane="best" departSpeed="max" from="-631611869#1" to="656443274#2"/>
    <trip id="truck211" type="truck_truck" depart="4931.25" departLane="best" from="180244636#5" to="-540665092#0"/>
    <trip id="truck212" type="truck_truck" depart="4954.62" departLane="best" from="277745444" to="-586413246#11"/>
    <trip id="truck213" type="truck_truck" depart="4978.00" departLane="best" from="586413246#4" to="9142394#2"/>
    <trip id="truck215" type="truck_truck" depart="5024.74" departLane="best" from="-656443274#2" to="1315084524"/>
    <trip id="truck216" type="truck_truck" depart="5048.11" departLane="best" from="-276157215#1" to="1339425865#1"/>
    <trip id="truck218" type="truck_truck" depart="5094.85" departLane="best" from="-1339425865#1" to="9151585#5"/>
    <trip id="truck219" type="truck_truck" depart="5118.22" departLane="best" from="-540665092#10" to="631611869#1"/>
    <trip id="truck220" type="truck_truck" depart="5141.59" departLane="best" from="586413266#2" to="631611869#1"/>
    <trip id="truck221" type="truck_truck" depart="5164.96" departLane="best" from="-9151585#0" to="-828146451"/>
    <trip id="truck222" type="truck_truck" depart="5188.33" departLane="best" from="656443274#1" to="-180244636#0"/>
    <trip id="truck223" type="truck_truck" depart="5211.70" departLane="best" departSpeed="max" from="9137054#0" to="-9153734"/>
    <trip id="truck224" type="truck_truck" depart="5235.07" departLane="best" from="-540665092#6" to="276157215#0"/>
    <trip id="truck227" type="truck_truck" depart="5305.19" departLane="best" from="-1338769044#0" to="586413246#6"/>
    <trip id="truck228" type="truck_truck" depart="5328.56" departLane="best" departSpeed="max" from="828146451" to="540665092#9"/>
    <trip id="truck229" type="truck_truck" depart="5351.93" departLane="best" from="-540665092#11" to="1315094301"/>
    <trip id="truck230" type="truck_truck" depart="5375.30" departLane="best" from="-9152018#1" to="656443274#1"/>
    <trip id="truck231" type="truck_truck" depart="5398.67" departLane="best" from="-9151585#3" to="540665092#3"/>
    <trip id="truck232" type="truck_truck" depart="5422.04" departLane="best" departSpeed="max" from="-631611869#1" to="276157218"/>
    <trip id="truck233" type="truck_truck" depart="5445.41" departLane="best" from="180244636#7" to="-9137054#1"/>
    <trip id="truck234" type="truck_truck" depart="5468.78" departLane="best" from="-631653305#2" to="586413246#4"/>
    <trip id="truck235" type="truck_truck" depart="5492.15" departLane="best" from="423728988" to="-9137054#0"/>
    <trip id="truck240" type="truck_truck" depart="5609.01" departLane="best" from="-9142394#4" to="631611869#1"/>
    <trip id="truck242" type="truck_truck" depart="5655.75" departLane="best" from="-9142394#4" to="586413246#6"/>
    <trip id="truck243" type="truck_truck" depart="5679.12" departLane="best" from="-1315084524" to="540665092#8"/>
    <trip id="truck244" type="truck_truck" depart="5702.49" departLane="best" from="-540665092#8" to="283536956#2"/>
    <trip id="truck245" type="truck_truck" depart="5725.86" departLane="best" from="586413246#8" to="9142394#4"/>
    <trip id="truck246" type="truck_truck" depart="5749.23" departLane="best" from="180244636#1" to="656443274#6"/>
    <trip id="truck247" type="truck_truck" depart="5772.60" departLane="best" from="-656443274#3" to="9151585#5"/>
    <trip id="truck248" type="truck_truck" depart="5795.98" departLane="best" from="-656443274#4" to="180244639#0"/>
    <trip id="truck249" type="truck_truck" depart="5819.35" departLane="best" from="-276157215#8" to="656443275"/>
    <trip id="truck250" type="truck_truck" depart="5842.72" departLane="best" from="-540665092#7" to="586002131#0"/>
    <trip id="truck252" type="truck_truck" depart="5889.46" departLane="best" departSpeed="max" from="-9142394#5" to="1315094301"/>
    <trip id="truck254" type="truck_truck" depart="5936.20" departLane="best" from="-276157215#9" to="533664762"/>
    <trip id="truck255" type="truck_truck" depart="5959.57" departLane="best" from="-9142394#2" to="9151585#1"/>
    <trip id="truck257" type="truck_truck" depart="6006.31" departLane="best" from="-540665092#4" to="533665196#1"/>
    <trip id="truck259" type="truck_truck" depart="6053.05" departLane="best" departSpeed="max" from="-343541421" to="-276157217"/>
    <trip id="truck260" type="truck_truck" depart="6076.43" departLane="best" from="-180244652#0" to="586413246#0"/>
    <trip id="truck261" type="truck_truck" depart="6099.80" departLane="best" from="-586080833" to="-586077896#1"/>
    <trip id="truck262" type="truck_truck" depart="6123.17" departLane="best" from="-540665092#0" to="-9124791#1"/>
    <trip id="truck264" type="truck_truck" depart="6169.91" departLane="best" from="-586413246#5" to="540665092#7"/>
    <trip id="truck265" type="truck_truck" depart="6193.28" departLane="best" from="-586413246#18" to="-828146451"/>
    <trip id="truck266" type="truck_truck" depart="6216.65" departLane="best" from="-540665092#7" to="-180244636#7"/>
    <trip id="truck267" type="truck_truck" depart="6240.02" departLane="best" from="568382083#2" to="273902603"/>
    <trip id="truck268" type="truck_truck" depart="6263.39" departLane="best" from="568382083#3" to="-180244636#5"/>
    <trip id="truck269" type="truck_truck" depart="6286.76" departLane="best" from="276157224#1" to="180244639#2"/>
    <trip id="truck271" type="truck_truck" depart="6333.51" departLane="best" from="586413246#11" to="-656443273"/>
    <trip id="truck272" type="truck_truck" depart="6356.88" departLane="best" from="-9142394#3" to="-180244637#1"/>
    <trip id="truck273" type="truck_truck" depart="6380.25" departLane="best" from="9124791#0" to="-180244652#3"/>
    <trip id="truck274" type="truck_truck" depart="6403.62" departLane="best" from="-276157215#1" to="343541421"/>
    <trip id="truck275" type="truck_truck" depart="6426.99" departLane="best" departSpeed="max" from="-180244639#2" to="586413254#1"/>
    <trip id="truck276" type="truck_truck" depart="6450.36" departLane="best" from="-276157215#2" to="1339425865#0"/>
    <trip id="truck277" type="truck_truck" depart="6473.73" departLane="best" from="423728988" to="276157215#9"/>
    <trip id="truck278" type="truck_truck" depart="6497.10" departLane="best" from="565255792#2" to="631611869#1"/>
    <trip id="truck279" type="truck_truck" depart="6520.47" departLane="best" from="-540665092#10" to="-586413246#11"/>
    <trip id="truck281" type="truck_truck" depart="6567.21" departLane="best" departSpeed="max" from="1209313234" to="540665092#5"/>
    <trip id="truck282" type="truck_truck" depart="6590.58" departLane="best" departSpeed="max" from="9137054#0" to="180244639#1"/>
    <trip id="truck283" type="truck_truck" depart="6613.96" departLane="best" from="586413256" to="276157215#6"/>
    <trip id="truck284" type="truck_truck" depart="6637.33" departLane="best" from="-276157215#8" to="586002130#1"/>
    <trip id="truck285" type="truck_truck" depart="6660.70" departLane="best" from="31031717#1" to="276157215#9"/>
    <trip id="truck287" type="truck_truck" depart="6707.44" departLane="best" from="540665092#2" to="-586080837"/>
    <trip id="truck288" type="truck_truck" depart="6730.81" departLane="best" departSpeed="max" from="-9142394#5" to="586080833"/>
    <trip id="truck289" type="truck_truck" depart="6754.18" departLane="best" from="283536958" to="586413246#7"/>
    <trip id="truck290" type="truck_truck" depart="6777.55" departLane="best" from="533665196#1" to="1338769044#1"/>