<?xml version="1.0" encoding="UTF-8"?>

<!-- generated on 2025-03-03 18:44:06.403641 by osmWebWizard.py v1_21_0+0000-d7b3b481c43
<configuration>
    <net-file value="C:\Users\evans\Sumo\2025-03-03-18-43-58\osm.net.xml.gz"/>
    <output-trip-file value="C:\Users\evans\Sumo\2025-03-03-18-43-58\osm.passenger.trips.xml"/>
    <route-file value="C:\Users\evans\Sumo\2025-03-03-18-43-58\osm.passenger.rou.xml"/>
    <prefix value="veh"/>
    <trip-attributes value="departLane=&quot;best&quot;"/>
    <fringe-start-attributes value="departSpeed=&quot;max&quot;"/>
    <vehicle-class value="passenger"/>
    <lanes value="True"/>
    <fringe-factor value="5"/>
    <allow-fringe.min-length value="1000.0"/>
    <via-edge-types value="highway.motorway,highway.motorway_link,highway.trunk_link,highway.primary_link,highway.secondary_link,highway.tertiary_link"/>
    <min-distance value="300.0"/>
    <min-distance.fringe value="10.0"/>
    <remove-loops value="True"/>
    <validate value="True"/>
    <end value="86400.0"/>
    <insertion-density value="12.0"/>
</configuration>
-->

<!-- generated on 2025-03-03 18:44:06 by Eclipse SUMO duarouter Version 1.21.0
<duarouterConfiguration xmlns:xsi="http://www.w3.org/2001/XMLSchema-instance" xsi:noNamespaceSchemaLocation="http://sumo.dlr.de/xsd/duarouterConfiguration.xsd">

    <input>
        <net-file value="C:\Users\evans\Sumo\2025-03-03-18-43-58\osm.net.xml.gz"/>
        <route-files value="C:\Users\evans\Sumo\2025-03-03-18-43-58\osm.passenger.trips.xml"/>
    </input>

    <output>
        <output-file value="C:\Users\evans\Sumo\2025-03-03-18-43-58\osm.passenger.trips.xml.tmp"/>
        <alternatives-output value="NUL"/>
        <write-trips value="true"/>
    </output>

    <processing>
        <remove-loops value="true"/>
    </processing>

    <time>
        <begin value="0.0"/>
        <end value="86400.0"/>
    </time>

    <report>
        <no-warnings value="true"/>
        <ignore-errors value="true"/>
        <no-step-log value="true"/>
    </report>

</duarouterConfiguration>
-->

<routes xmlns:xsi="http://www.w3.org/2001/XMLSchema-instance" xsi:noNamespaceSchemaLocation="http://sumo.dlr.de/xsd/routes_file.xsd">
    <vType id="veh_passenger" vClass="passenger"/>
    <trip id="veh0" type="veh_passenger" depart="0.00" departLane="best" departSpeed="max" from="423728990" to="1338769044#0"/>
    <trip id="veh1" type="veh_passenger" depart="15.58" departLane="best" departSpeed="max" from="-631611869#1" to="586077896#1"/>
    <trip id="veh2" type="veh_passenger" depart="31.16" departLane="best" from="-656443274#4" to="276157215#4"/>
    <trip id="veh3" type="veh_passenger" depart="46.74" departLane="best" from="129601762#1" to="1338769044#1"/>
    <trip id="veh5" type="veh_passenger" depart="77.90" departLane="best" from="-586077896#3" to="283536956#0"/>
    <trip id="veh6" type="veh_passenger" depart="93.48" departLane="best" from="-586413246#0" to="-1209313234"/>
    <trip id="veh7" type="veh_passenger" depart="109.06" departLane="best" from="-586080833" to="540665092#2"/>
    <trip id="veh8" type="veh_passenger" depart="124.64" departLane="best" from="828146450#0" to="540665092#0"/>
    <trip id="veh9" type="veh_passenger" depart="140.23" departLane="best" departSpeed="max" from="9137054#0" to="-828146450#0"/>
    <trip id="veh10" type="veh_passenger" depart="155.81" departLane="best" from="586413259#3" to="283536956#2"/>
    <trip id="veh11" type="veh_passenger" depart="171.39" departLane="best" from="-586080833" to="551574175#0"/>
    <trip id="veh12" type="veh_passenger" depart="186.97" departLane="best" from="277745444" to="9142394#5"/>
    <trip id="veh13" type="veh_passenger" depart="202.55" departLane="best" from="-586413246#5" to="287145656#3"/>
    <trip id="veh14" type="veh_passenger" depart="218.13" departLane="best" from="631653305#0" to="276157224#1"/>
    <trip id="veh15" type="veh_passenger" depart="233.71" departLane="best" from="-540665092#9" to="-180244636#0"/>
    <trip id="veh16" type="veh_passenger" depart="249.29" departLane="best" from="-586413246#0" to="656443274#1"/>
    <trip id="veh17" type="veh_passenger" depart="264.87" departLane="best" from="-276157215#2" to="586080833"/>
    <trip id="veh18" type="veh_passenger" depart="280.45" departLane="best" from="276157217" to="656443273"/>
    <trip id="veh19" type="veh_passenger" depart="296.03" departLane="best" departSpeed="max" from="423728990" to="-9124791#1"/>
    <trip id="veh21" type="veh_passenger" depart="327.19" departLane="best" departSpeed="max" from="-631611869#1" to="-828146450#0"/>
    <trip id="veh23" type="veh_passenger" depart="358.35" departLane="best" from="-540665092#3" to="551574175#0"/>
    <trip id="veh25" type="veh_passenger" depart="389.51" departLane="best" from="-9151585#4" to="343541421"/>
    <trip id="veh26" type="veh_passenger" depart="405.10" departLane="best" from="283536956#2" to="540665092#0"/>
    <trip id="veh27" type="veh_passenger" depart="420.68" departLane="best" from="565255792#3" to="586002129"/>
    <trip id="veh28" type="veh_passenger" depart="436.26" departLane="best" from="-586413246#1" to="1338769044#1"/>
    <trip id="veh29" type="veh_passenger" depart="451.84" departLane="best" from="-656443274#4" to="-586413249#1"/>
    <trip id="veh30" type="veh_passenger" depart="467.42" departLane="best" from="-586077896#0" to="-9124791#1"/>
    <trip id="veh31" type="veh_passenger" depart="483.00" departLane="best" from="531094133#1" to="9142394#4"/>
    <trip id="veh32" type="veh_passenger" depart="498.58" departLane="best" departSpeed="max" from="-631611869#1" to="-586413246#14"/>
    <trip id="veh33" type="veh_passenger" depart="514.16" departLane="best" from="283536956#2" to="586413246#7"/>
    <trip id="veh34" type="veh_passenger" depart="529.74" departLane="best" from="277745444" to="656443274#0"/>
    <trip id="veh35" type="veh_passenger" depart="545.32" departLane="best" departSpeed="max" from="-9152018#3" to="586077896#0"/>
    <trip id="veh36" type="veh_passenger" depart="560.90" departLane="best" from="-9152018#2" to="273902603"/>
    <trip id="veh37" type="veh_passenger" depart="576.48" departLane="best" from="-276157215#5" to="-180244636#1"/>
    <trip id="veh38" type="veh_passenger" depart="592.06" departLane="best" from="-276157224#1" to="31031717#1"/>
    <trip id="veh39" type="veh_passenger" depart="607.64" departLane="best" from="-586077896#0" to="129601762#0"/>
    <trip id="veh41" type="veh_passenger" depart="638.80" departLane="best" from="-9152018#1" to="273902603"/>
    <trip id="veh43" type="veh_passenger" depart="669.96" departLane="best" from="-540665092#2" to="276157215#1"/>
    <trip id="veh44" type="veh_passenger" depart="685.55" departLane="best" departSpeed="max" from="-631611869#1" to="343541421"/>
    <trip id="veh45" type="veh_passenger" depart="701.13" departLane="best" from="-287145656#2" to="1315084524"/>
    <trip id="veh47" type="veh_passenger" depart="732.29" departLane="best" from="656443274#1" to="-586413246#8"/>
    <trip id="veh48" type="veh_passenger" depart="747.87" departLane="best" from="-276157215#4" to="540665092#5"/>
    <trip id="veh49" type="veh_passenger" depart="763.45" departLane="best" from="828146451" to="631611869#1"/>
    <trip id="veh50" type="veh_passenger" depart="779.03" departLane="best" from="-656443274#1" to="343541421"/>
    <trip id="veh52" type="veh_passenger" depart="810.19" departLane="best" from="568382083#0" to="276157215#2"/>
    <trip id="veh53" type="veh_passenger" depart="825.77" departLane="best" from="586002131#1" to="273902603"/>
    <trip id="veh54" type="veh_passenger" depart="841.35" departLane="best" from="-1315084524" to="656443274#6"/>
    <trip id="veh55" type="veh_passenger" depart="856.93" departLane="best" from="-1338769044#2" to="-656443275"/>
    <trip id="veh56" type="veh_passenger" depart="872.51" departLane="best" from="-656443274#1" to="586413246#2"/>
    <trip id="veh57" type="veh_passenger" depart="888.09" departLane="best" from="-656443274#3" to="-180244636#8"/>
    <trip id="veh58" type="veh_passenger" depart="903.67" departLane="best" from="-656443274#1" to="-9137054#2"/>
    <trip id="veh59" type="veh_passenger" depart="919.25" departLane="best" from="-276157215#4" to="180244639#2"/>
    <trip id="veh60" type="veh_passenger" depart="934.83" departLane="best" from="-180244652#2" to="565255792#4"/>
    <trip id="veh61" type="veh_passenger" depart="950.42" departLane="best" from="568382083#2" to="-287145656#4"/>
    <trip id="veh62" type="veh_passenger" depart="966.00" departLane="best" from="-180244637#1" to="276157215#5"/>
    <trip id="veh63" type="veh_passenger" depart="981.58" departLane="best" from="129601762#1" to="-568382083#1"/>
    <trip id="veh64" type="veh_passenger" depart="997.16" departLane="best" from="568382083#0" to="-656443274#4"/>
    <trip id="veh65" type="veh_passenger" depart="1012.74" departLane="best" from="-9152018#0" to="343541421"/>
    <trip id="veh66" type="veh_passenger" depart="1028.32" departLane="best" from="-1315094301" to="273902603"/>
    <trip id="veh67" type="veh_passenger" depart="1043.90" departLane="best" from="-586413246#1" to="586077896#0"/>
    <trip id="veh68" type="veh_passenger" depart="1059.48" departLane="best" from="180244652#3" to="31031717#1"/>
    <trip id="veh69" type="veh_passenger" depart="1075.06" departLane="best" from="-586413246#1" to="656443274#2"/>
    <trip id="veh70" type="veh_passenger" depart="1090.64" departLane="best" from="631653305#0" to="-180244652#2"/>
    <trip id="veh71" type="veh_passenger" depart="1106.22" departLane="best" from="-586413246#15" to="531094133#1"/>
    <trip id="veh73" type="veh_passenger" depart="1137.38" departLane="best" departSpeed="max" from="828146451" to="276157224#0"/>
    <trip id="veh74" type="veh_passenger" depart="1152.96" departLane="best" from="180244636#8" to="586002130#2"/>
    <trip id="veh75" type="veh_passenger" depart="1168.54" departLane="best" from="-586080833" to="540665092#9"/>
    <trip id="veh76" type="veh_passenger" depart="1184.12" departLane="best" from="-276157215#8" to="276157218"/>
    <trip id="veh77" type="veh_passenger" depart="1199.70" departLane="best" from="129601762#1" to="-180244636#1"/>
    <trip id="veh78" type="veh_passenger" depart="1215.29" departLane="best" from="631653305#0" to="-586413246#16"/>
    <trip id="veh79" type="veh_passenger" depart="1230.87" departLane="best" from="129601762#1" to="656443273"/>
    <trip id="veh80" type="veh_passenger" depart="1246.45" departLane="best" from="-586413246#6" to="656443274#6"/>
    <trip id="veh81" type="veh_passenger" depart="1262.03" departLane="best" from="-1338769044#0" to="586413267#1"/>
    <trip id="veh82" type="veh_passenger" depart="1277.61" departLane="best" from="283536956#1" to="-180244636#4"/>
    <trip id="veh83" type="veh_passenger" depart="1293.19" departLane="best" from="9153734" to="586413246#5"/>
    <trip id="veh85" type="veh_passenger" depart="1324.35" departLane="best" from="586413263#1" to="540665092#11"/>
    <trip id="veh86" type="veh_passenger" depart="1339.93" departLane="best" departSpeed="max" from="-9152018#3" to="180244637#0"/>
    <trip id="veh87" type="veh_passenger" depart="1355.51" departLane="best" departSpeed="max" from="-631611869#1" to="586002130#2"/>
    <trip id="veh89" type="veh_passenger" depart="1386.67" departLane="best" from="283536956#1" to="540665092#9"/>
    <trip id="veh91" type="veh_passenger" depart="1417.83" departLane="best" from="283536956#0" to="551576182"/>
    <trip id="veh92" type="veh_passenger" depart="1433.41" departLane="best" from="-180244639#0" to="277745444"/>
    <trip id="veh93" type="veh_passenger" depart="1448.99" departLane="best" from="-276157215#5" to="586413259#2"/>
    <trip id="veh94" type="veh_passenger" depart="1464.57" departLane="best" from="-276157215#2" to="540665092#7"/>
    <trip id="veh96" type="veh_passenger" depart="1495.74" departLane="best" from="-586413246#14" to="287145656#3"/>
    <trip id="veh97" type="veh_passenger" depart="1511.32" departLane="best" from="656443274#4" to="-586413246#14"/>
    <trip id="veh99" type="veh_passenger" depart="1542.48" departLane="best" from="276157218" to="-828146450#0"/>
    <trip id="veh100" type="veh_passenger" depart="1558.06" departLane="best" from="586413246#16" to="9142394#4"/>
    <trip id="veh101" type="veh_passenger" depart="1573.64" departLane="best" from="-656443274#4" to="565245613"/>
    <trip id="veh102" type="veh_passenger" depart="1589.22" departLane="best" from="-276157215#0" to="169152446#0"/>
    <trip id="veh103" type="veh_passenger" depart="1604.80" departLane="best" from="9153734" to="9152018#3"/>
    <trip id="veh104" type="veh_passenger" depart="1620.38" departLane="best" from="-276157215#0" to="-568382083#2"/>
    <trip id="veh105" type="veh_passenger" depart="1635.96" departLane="best" departSpeed="max" from="-631611869#1" to="-828146450#0"/>
    <trip id="veh106" type="veh_passenger" depart="1651.54" departLane="best" from="-656443274#2" to="631611869#1"/>
    <trip id="veh107" type="veh_passenger" depart="1667.12" departLane="best" from="586413246#8" to="-540665092#4"/>
    <trip id="veh108" type="veh_passenger" depart="1682.70" departLane="best" from="423728988" to="9152018#1"/>
    <trip id="veh110" type="veh_passenger" depart="1713.86" departLane="best" from="586413246#14" to="-656443274#2"/>
    <trip id="veh111" type="veh_passenger" depart="1729.44" departLane="best" departSpeed="max" from="-343541421" to="287145656#0"/>
    <trip id="veh112" type="veh_passenger" depart="1745.02" departLane="best" from="276157224#0" to="276157215#6"/>
    <trip id="veh113" type="veh_passenger" depart="1760.61" departLane="best" departSpeed="max" from="-631611869#1" to="283536956#2"/>
    <trip id="veh115" type="veh_passenger" depart="1791.77" departLane="best" departSpeed="max" from="423728990" to="586413246#8"/>
    <trip id="veh116" type="veh_passenger" depart="1807.35" departLane="best" from="-276157215#0" to="656443274#2"/>
    <trip id="veh117" type="veh_passenger" depart="1822.93" departLane="best" from="586413259#2" to="276157215#6"/>
    <trip id="veh118" type="veh_passenger" depart="1838.51" departLane="best" from="129601762#1" to="-631653305#2"/>
    <trip id="veh119" type="veh_passenger" depart="1854.09" departLane="best" from="-1315094301" to="-568382083#2"/>
    <trip id="veh120" type="veh_passenger" depart="1869.67" departLane="best" departSpeed="max" from="423728990" to="586413246#7"/>
    <trip id="veh121" type="veh_passenger" depart="1885.25" departLane="best" from="565255792#1" to="276157215#6"/>
    <trip id="veh122" type="veh_passenger" depart="1900.83" departLane="best" from="-276157215#1" to="-631653305#2"/>
    <trip id="veh123" type="veh_passenger" depart="1916.41" departLane="best" from="-656443274#6" to="276157215#4"/>
    <trip id="veh124" type="veh_passenger" depart="1931.99" departLane="best" from="-586413246#8" to="277745444"/>
    <trip id="veh126" type="veh_passenger" depart="1963.15" departLane="best" from="656443274#5" to="-568382083#0"/>
    <trip id="veh127" type="veh_passenger" depart="1978.73" departLane="best" from="-586413246#5" to="-276157217"/>
    <trip id="veh128" type="veh_passenger" depart="1994.31" departLane="best" departSpeed="max" from="1209313234" to="287145656#3"/>
    <trip id="veh129" type="veh_passenger" depart="2009.89" departLane="best" from="631653305#0" to="9151585#1"/>
    <trip id="veh130" type="veh_passenger" depart="2025.48" departLane="best" from="-586413246#1" to="631611869#1"/>
    <trip id="veh131" type="veh_passenger" depart="2041.06" departLane="best" from="-1339425865#0" to="551574175#1"/>
    <trip id="veh132" type="veh_passenger" depart="2056.64" departLane="best" from="-586077896#3" to="631611869#0"/>
    <trip id="veh133" type="veh_passenger" depart="2072.22" departLane="best" from="-656443274#0" to="586413266#2"/>
    <trip id="veh134" type="veh_passenger" depart="2087.80" departLane="best" from="-586080833" to="-586413246#1"/>
    <trip id="veh135" type="veh_passenger" depart="2103.38" departLane="best" from="180244628" to="-656443274#3"/>
    <trip id="veh136" type="veh_passenger" depart="2118.96" departLane="best" from="-656443274#6" to="631611869#0"/>
    <trip id="veh138" type="veh_passenger" depart="2150.12" departLane="best" departSpeed="max" from="423728990" to="9151585#1"/>
    <trip id="veh139" type="veh_passenger" depart="2165.70" departLane="best" from="-9142394#4" to="276157215#1"/>
    <trip id="veh141" type="veh_passenger" depart="2196.86" departLane="best" from="9137054#1" to="-586413249#0"/>
    <trip id="veh142" type="veh_passenger" depart="2212.44" departLane="best" from="-9151585#4" to="-276157224#1"/>
    <trip id="veh143" type="veh_passenger" depart="2228.02" departLane="best" from="-586413249#0" to="540665092#6"/>
    <trip id="veh144" type="veh_passenger" depart="2243.60" departLane="best" from="-1315084524" to="656443274#6"/>
    <trip id="veh145" type="veh_passenger" depart="2259.18" departLane="best" from="277745444" to="540665092#9"/>
    <trip id="veh146" type="veh_passenger" depart="2274.76" departLane="best" from="565255792#1" to="533664762"/>
    <trip id="veh147" type="veh_passenger" depart="2290.35" departLane="best" from="533665191" to="656443275"/>
    <trip id="veh148" type="veh_passenger" depart="2305.93" departLane="best" from="-656443274#4" to="586413256"/>
    <trip id="veh149" type="veh_passenger" depart="2321.51" departLane="best" from="551574175#1" to="656443274#2"/>
    <trip id="veh150" type="veh_passenger" depart="2337.09" departLane="best" from="-656443274#3" to="9152018#0"/>
    <trip id="veh151" type="veh_passenger" depart="2352.67" departLane="best" from="9153734" to="656443274#2"/>
    <trip id="veh152" type="veh_passenger" depart="2368.25" departLane="best" from="-287145656#4" to="129601761"/>
    <trip id="veh153" type="veh_passenger" depart="2383.83" departLane="best" from="-656443274#2" to="276157215#5"/>
    <trip id="veh154" type="veh_passenger" depart="2399.41" departLane="best" from="-1315084524" to="656443274#0"/>
    <trip id="veh155" type="veh_passenger" depart="2414.99" departLane="best" from="-586413254#0" to="-180244636#0"/>
    <trip id="veh156" type="veh_passenger" depart="2430.57" departLane="best" from="180244636#8" to="656443274#1"/>
    <trip id="veh157" type="veh_passenger" depart="2446.15" departLane="best" from="-276157215#3" to="273902603"/>
    <trip id="veh158" type="veh_passenger" depart="2461.73" departLane="best" departSpeed="max" from="423728990" to="-828146450#0"/>
    <trip id="veh159" type="veh_passenger" depart="2477.31" departLane="best" from="586413246#15" to="565245613"/>
    <trip id="veh160" type="veh_passenger" depart="2492.89" departLane="best" from="586413246#3" to="-180244636#7"/>
    <trip id="veh161" type="veh_passenger" depart="2508.47" departLane="best" from="586413266#1" to="276157215#0"/>
    <trip id="veh162" type="veh_passenger" depart="2524.05" departLane="best" from="551576182" to="540665092#2"/>
    <trip id="veh163" type="veh_passenger" depart="2539.63" departLane="best" from="-276157215#2" to="-586413246#13"/>
    <trip id="veh164" type="veh_passenger" depart="2555.21" departLane="best" from="551574175#1" to="-1209313234"/>
    <trip id="veh165" type="veh_passenger" depart="2570.80" departLane="best" from="586413267#1" to="-568382083#1"/>
    <trip id="veh166" type="veh_passenger" depart="2586.38" departLane="best" from="-540665092#4" to="-9142338"/>
    <trip id="veh167" type="veh_passenger" depart="2601.96" departLane="best" from="276157217" to="-180244636#4"/>
    <trip id="veh168" type="veh_passenger" depart="2617.54" departLane="best" from="-586413246#5" to="586413256"/>
    <trip id="veh170" type="veh_passenger" depart="2648.70" departLane="best" from="-533665196#1" to="9152018#1"/>
    <trip id="veh172" type="veh_passenger" depart="2679.86" departLane="best" from="-656443274#4" to="283536957"/>
    <trip id="veh173" type="veh_passenger" depart="2695.44" departLane="best" from="551574175#1" to="273902603"/>
    <trip id="veh174" type="veh_passenger" depart="2711.02" departLane="best" from="-586413246#6" to="276157215#5"/>
    <trip id="veh175" type="veh_passenger" depart="2726.60" departLane="best" from="180244637#0" to="586413246#5"/>
    <trip id="veh176" type="veh_passenger" depart="2742.18" departLane="best" from="586413246#4" to="343541421"/>
    <trip id="veh177" type="veh_passenger" depart="2757.76" departLane="best" from="568382083#2" to="273902603"/>
    <trip id="veh178" type="veh_passenger" depart="2773.34" departLane="best" departSpeed="max" from="423728990" to="-631653305#2"/>
    <trip id="veh179" type="veh_passenger" depart="2788.92" departLane="best" from="-276157215#1" to="656443274#0"/>
    <trip id="veh180" type="veh_passenger" depart="2804.50" departLane="best" departSpeed="max" from="-631611869#1" to="656443274#5"/>
    <trip id="veh182" type="veh_passenger" depart="2835.67" departLane="best" from="586413246#11" to="540665092#11"/>
    <trip id="veh183" type="veh_passenger" depart="2851.25" departLane="best" from="-540665092#9" to="-180244637#1"/>
    <trip id="veh185" type="veh_passenger" depart="2882.41" departLane="best" from="129601762#0" to="656443274#2"/>
    <trip id="veh186" type="veh_passenger" depart="2897.99" departLane="best" from="277745444" to="540665092#2"/>
    <trip id="veh187" type="veh_passenger" depart="2913.57" departLane="best" from="-631611869#0" to="565255792#7"/>
    <trip id="veh188" type="veh_passenger" depart="2929.15" departLane="best" from="9137054#2" to="565255792#0"/>
    <trip id="veh190" type="veh_passenger" depart="2960.31" departLane="best" from="129601762#0" to="551576182"/>
    <trip id="veh191" type="veh_passenger" depart="2975.89" departLane="best" from="-1315094301" to="1338769044#1"/>
    <trip id="veh192" type="veh_passenger" depart="2991.47" departLane="best" from="-656443275" to="533665191"/>
    <trip id="veh193" type="veh_passenger" depart="3007.05" departLane="best" departSpeed="max" from="1209313234" to="540665092#11"/>
    <trip id="veh194" type="veh_passenger" depart="3022.63" departLane="best" from="180244636#5" to="287145656#4"/>
    <trip id="veh195" type="veh_passenger" depart="3038.21" departLane="best" departSpeed="max" from="423728990" to="1338769044#1"/>
    <trip id="veh196" type="veh_passenger" depart="3053.79" departLane="best" departSpeed="max" from="-9152018#3" to="276157218"/>
    <trip id="veh197" type="veh_passenger" depart="3069.37" departLane="best" from="1339425865#0" to="343541421"/>
    <trip id="veh198" type="veh_passenger" depart="3084.95" departLane="best" departSpeed="max" from="-343541421" to="169152446#0"/>
    <trip id="veh201" type="veh_passenger" depart="3131.70" departLane="best" from="565255794" to="586413246#2"/>
    <trip id="veh202" type="veh_passenger" depart="3147.28" departLane="best" from="-586413246#7" to="276157215#2"/>
    <trip id="veh203" type="veh_passenger" depart="3162.86" departLane="best" from="-1338769044#2" to="276157215#2"/>
    <trip id="veh206" type="veh_passenger" depart="3209.60" departLane="best" from="9124791#0" to="551576182"/>
    <trip id="veh207" type="veh_passenger" depart="3225.18" departLane="best" from="283536956#2" to="586077896#0"/>
    <trip id="veh208" type="veh_passenger" depart="3240.76" departLane="best" from="-540665092#2" to="283536956#2"/>
    <trip id="veh209" type="veh_passenger" depart="3256.34" departLane="best" from="565255792#5" to="287145656#0"/>
    <trip id="veh210" type="veh_passenger" depart="3271.92" departLane="best" from="586413246#16" to="9142394#4"/>
    <trip id="veh211" type="veh_passenger" depart="3287.50" departLane="best" from="-276157224#1" to="1338769044#0"/>
    <trip id="veh212" type="veh_passenger" depart="3303.08" departLane="best" from="-656443274#3" to="533665191"/>
    <trip id="veh213" type="veh_passenger" depart="3318.66" departLane="best" departSpeed="max" from="9137054#0" to="9142394#4"/>
    <trip id="veh214" type="veh_passenger" depart="3334.24" departLane="best" from="551574175#0" to="276157215#1"/>
    <trip id="veh215" type="veh_passenger" depart="3349.82" departLane="best" from="-540665092#4" to="-287145656#4"/>
    <trip id="veh216" type="veh_passenger" depart="3365.41" departLane="best" from="276157217" to="-568382083#2"/>
    <trip id="veh217" type="veh_passenger" depart="3380.99" departLane="best" from="-287145656#3" to="9151585#5"/>
    <trip id="veh218" type="veh_passenger" depart="3396.57" departLane="best" from="586002131#0" to="-828146451"/>
    <trip id="veh219" type="veh_passenger" depart="3412.15" departLane="best" from="129601762#3" to="-9137054#0"/>
    <trip id="veh220" type="veh_passenger" depart="3427.73" departLane="best" from="-276157215#6" to="-828146451"/>
    <trip id="veh221" type="veh_passenger" depart="3443.31" departLane="best" from="586413263#1" to="586413246#13"/>
    <trip id="veh222" type="veh_passenger" depart="3458.89" departLane="best" from="-276157224#0" to="9142394#1"/>
    <trip id="veh223" type="veh_passenger" depart="3474.47" departLane="best" departSpeed="max" from="423728990" to="586413246#17"/>
    <trip id="veh224" type="veh_passenger" depart="3490.05" departLane="best" departSpeed="max" from="-631611869#1" to="586077896#3"/>
    <trip id="veh225" type="veh_passenger" depart="3505.63" departLane="best" from="277745444" to="180244639#1"/>
    <trip id="veh226" type="veh_passenger" depart="3521.21" departLane="best" from="-1315094301" to="551574175#0"/>
    <trip id="veh227" type="veh_passenger" depart="3536.79" departLane="best" departSpeed="max" from="-631611869#1" to="586413259#2"/>
    <trip id="veh228" type="veh_passenger" depart="3552.37" departLane="best" from="656443274#2" to="-586413246#13"/>
    <trip id="veh229" type="veh_passenger" depart="3567.95" departLane="best" from="180244636#3" to="283536957"/>
    <trip id="veh230" type="veh_passenger" depart="3583.53" departLane="best" from="-9151585#0" to="1338769044#1"/>
    <trip id="veh231" type="veh_passenger" depart="3599.11" departLane="best" from="586413266#1" to="540665092#6"/>
    <trip id="veh232" type="veh_passenger" depart="3614.69" departLane="best" from="-828146450#0" to="631611869#1"/>
    <trip id="veh233" type="veh_passenger" depart="3630.27" departLane="best" from="-540665092#8" to="-631653305#2"/>
    <trip id="veh234" type="veh_passenger" depart="3645.86" departLane="best" from="-1338769043" to="-9137054#2"/>
    <trip id="veh235" type="veh_passenger" depart="3661.44" departLane="best" from="-276157215#4" to="540665092#9"/>
    <trip id="veh236" type="veh_passenger" depart="3677.02" departLane="best" from="-276157215#0" to="565255792#3"/>
    <trip id="veh237" type="veh_passenger" depart="3692.60" departLane="best" from="540665092#4" to="343541421"/>
    <trip id="veh238" type="veh_passenger" depart="3708.18" departLane="best" from="-276157215#1" to="586002131#1"/>
    <trip id="veh239" type="veh_passenger" depart="3723.76" departLane="best" from="-276157215#6" to="586077896#1"/>
    <trip id="veh240" type="veh_passenger" depart="3739.34" departLane="best" from="-287145656#4" to="-180244636#6"/>
    <trip id="veh241" type="veh_passenger" depart="3754.92" departLane="best" from="-540665092#8" to="631611869#0"/>
    <trip id="veh242" type="veh_passenger" depart="3770.50" departLane="best" from="-586413246#7" to="287145656#3"/>
    <trip id="veh243" type="veh_passenger" depart="3786.08" departLane="best" from="180244652#2" to="551574173"/>
    <trip id="veh244" type="veh_passenger" depart="3801.66" departLane="best" from="-631653305#2" to="276157215#9"/>
    <trip id="veh245" type="veh_passenger" depart="3817.24" departLane="best" from="-540665092#6" to="1315094301"/>
    <trip id="veh246" type="veh_passenger" depart="3832.82" departLane="best" from="9142338" to="276157215#8"/>
    <trip id="veh247" type="veh_passenger" depart="3848.40" departLane="best" from="-540665092#6" to="-287145656#4"/>
    <trip id="veh248" type="veh_passenger" depart="3863.98" departLane="best" from="656443273" to="180244639#2"/>
    <trip id="veh249" type="veh_passenger" depart="3879.56" departLane="best" from="-656443274#0" to="276157224#0"/>
    <trip id="veh250" type="veh_passenger" depart="3895.14" departLane="best" from="180244636#6" to="-1315094301"/>
    <trip id="veh251" type="veh_passenger" depart="3910.73" departLane="best" from="-540665092#7" to="-180244636#4"/>
    <trip id="veh252" type="veh_passenger" depart="3926.31" departLane="best" departSpeed="max" from="828146451" to="180244637#0"/>
    <trip id="veh253" type="veh_passenger" depart="3941.89" departLane="best" from="586413246#17" to="9151585#2"/>
    <trip id="veh254" type="veh_passenger" depart="3957.47" departLane="best" from="-276157215#0" to="31031717#1"/>
    <trip id="veh256" type="veh_passenger" depart="3988.63" departLane="best" from="283536956#2" to="656443274#3"/>
    <trip id="veh257" type="veh_passenger" depart="4004.21" departLane="best" from="-9152018#0" to="287145656#3"/>
    <trip id="veh258" type="veh_passenger" depart="4019.79" departLane="best" from="568382083#1" to="283536956#2"/>
    <trip id="veh259" type="veh_passenger" depart="4035.37" departLane="best" from="276157218" to="1338769044#1"/>
    <trip id="veh260" type="veh_passenger" depart="4050.95" departLane="best" from="-1338769044#0" to="586413266#3"/>
    <trip id="veh261" type="veh_passenger" depart="4066.53" departLane="best" from="-9151585#4" to="656443274#3"/>
    <trip id="veh262" type="veh_passenger" depart="4082.11" departLane="best" departSpeed="max" from="423728990" to="283536956#2"/>
    <trip id="veh263" type="veh_passenger" depart="4097.69" departLane="best" from="565255792#0" to="-9137054#2"/>
    <trip id="veh264" type="veh_passenger" depart="4113.27" departLane="best" from="586077896#0" to="-568382083#0"/>