<?xml version="1.0" encoding="UTF-8"?>

<!-- generated on 2025-02-26 16:48:59.661606 by osmWebWizard.py v1_21_0+0000-d7b3b481c43
<configuration>
    <net-file value="C:\Users\evans\Sumo\2025-02-26-16-48-44\osm.net.xml.gz"/>
    <output-trip-file value="C:\Users\evans\Sumo\2025-02-26-16-48-44\osm.bus.trips.xml"/>
    <route-file value="C:\Users\evans\Sumo\2025-02-26-16-48-44\osm.bus.rou.xml"/>
    <prefix value="bus"/>
    <trip-attributes value="departLane=&quot;best&quot;"/>
    <fringe-start-attributes value="departSpeed=&quot;max&quot;"/>
    <vehicle-class value="bus"/>
    <fringe-factor value="5"/>
    <vclass value="bus"/>
    <via-edge-types value="highway.motorway,highway.motorway_link,highway.trunk_link,highway.primary_link,highway.secondary_link,highway.tertiary_link"/>
    <min-distance value="600.0"/>
    <min-distance.fringe value="10.0"/>
    <remove-loops value="True"/>
    <validate value="True"/>
    <end value="86400.0"/>
    <insertion-density value="4.0"/>
</configuration>
-->

<!-- generated on 2025-02-26 16:48:59 by Eclipse SUMO duarouter Version 1.21.0
<duarouterConfiguration xmlns:xsi="http://www.w3.org/2001/XMLSchema-instance" xsi:noNamespaceSchemaLocation="http://sumo.dlr.de/xsd/duarouterConfiguration.xsd">

    <input>
        <net-file value="C:\Users\evans\Sumo\2025-02-26-16-48-44\osm.net.xml.gz"/>
        <route-files value="C:\Users\evans\Sumo\2025-02-26-16-48-44\osm.bus.trips.xml"/>
    </input>

    <output>
        <output-file value="C:\Users\evans\Sumo\2025-02-26-16-48-44\osm.bus.trips.xml.tmp"/>
        <alternatives-output value="NUL"/>
        <write-trips value="true"/>
    </output>

    <processing>
        <remove-loops value="true"/>
    </processing>

    <time>
        <begin value="0.0"/>
        <end value="86400.0"/>
    </time>

    <report>
        <no-warnings value="true"/>
        <ignore-errors value="true"/>
        <no-step-log value="true"/>
    </report>

</duarouterConfiguration>
-->

<routes xmlns:xsi="http://www.w3.org/2001/XMLSchema-instance" xsi:noNamespaceSchemaLocation="http://sumo.dlr.de/xsd/routes_file.xsd">
    <vType id="bus_bus" vClass="bus"/>
    <trip id="bus0" type="bus_bus" depart="0.00" departLane="best" from="371908690#1" to="-1209313234"/>
    <trip id="bus1" type="bus_bus" depart="17.81" departLane="best" from="586002129" to="423654397"/>
    <trip id="bus2" type="bus_bus" depart="35.62" departLane="best" departSpeed="max" from="-9150977#22" to="1315066561"/>
    <trip id="bus3" type="bus_bus" depart="53.43" departLane="best" from="568382083#1" to="1315084524"/>
    <trip id="bus4" type="bus_bus" depart="71.23" departLane="best" departSpeed="max" from="-1209313235" to="-568382083#0"/>
    <trip id="bus5" type="bus_bus" depart="89.04" departLane="best" from="-415362031#0" to="180244639#1"/>
    <trip id="bus6" type="bus_bus" depart="106.85" departLane="best" from="568382083#2" to="276157215#3"/>
    <trip id="bus7" type="bus_bus" depart="124.66" departLane="best" from="828146451" to="-1044405760#3"/>
    <trip id="bus8" type="bus_bus" depart="142.47" departLane="best" from="691528616" to="540665092#1"/>
    <trip id="bus9" type="bus_bus" depart="160.28" departLane="best" departSpeed="max" from="-210830412" to="276157215#5"/>
    <trip id="bus10" type="bus_bus" depart="178.08" departLane="best" departSpeed="max" from="9122810#0" to="277745441"/>
    <trip id="bus11" type="bus_bus" depart="195.89" departLane="best" from="180244637#1" to="9150977#22"/>
    <trip id="bus14" type="bus_bus" depart="249.32" departLane="best" departSpeed="max" from="9124791#0" to="-267110730#1"/>
    <trip id="bus15" type="bus_bus" depart="267.13" departLane="best" departSpeed="max" from="563606218" to="1338769043#2"/>
    <trip id="bus16" type="bus_bus" depart="284.94" departLane="best" from="-586080833" to="-9122370#2"/>
    <trip id="bus18" type="bus_bus" depart="320.55" departLane="best" from="343537877" to="-9142338#3"/>
    <trip id="bus20" type="bus_bus" depart="356.17" departLane="best" from="-415362031#1" to="565255792#5"/>
    <trip id="bus22" type="bus_bus" depart="391.79" departLane="best" departSpeed="max" from="273902600" to="-505368797#0"/>
    <trip id="bus23" type="bus_bus" depart="409.60" departLane="best" from="9122370#4" to="586413246#1"/>
    <trip id="bus24" type="bus_bus" depart="427.40" departLane="best" from="586080834" to="1315070421#0"/>
    <trip id="bus26" type="bus_bus" depart="463.02" departLane="best" departSpeed="max" from="-568377840#3" to="9147358#2"/>
    <trip id="bus27" type="bus_bus" depart="480.83" departLane="best" departSpeed="max" from="9137054#0" to="-9127807"/>
    <trip id="bus29" type="bus_bus" depart="516.45" departLane="best" from="9142338#2" to="-1044405760#5"/>
    <trip id="bus30" type="bus_bus" depart="534.25" departLane="best" from="-631611869#1" to="656443274#2"/>
    <trip id="bus31" type="bus_bus" depart="552.06" departLane="best" departSpeed="max" from="-9148332#11" to="-586413246#14"/>
    <trip id="bus32" type="bus_bus" depart="569.87" departLane="best" departSpeed="max" from="-210830412" to="1338769043#3"/>
    <trip id="bus33" type="bus_bus" depart="587.68" departLane="best" from="267110730#2" to="304892966#0"/>
    <trip id="bus34" type="bus_bus" depart="605.49" departLane="best" from="631653305#0" to="9150977#1"/>
    <trip id="bus36" type="bus_bus" depart="641.11" departLane="best" from="1044405760#7" to="565245611#1"/>
    <trip id="bus37" type="bus_bus" depart="658.91" departLane="best" from="-540665092#11" to="-180244636#5"/>
    <trip id="bus38" type="bus_bus" depart="676.72" departLane="best" from="-631653305#2" to="-341635866"/>
    <trip id="bus39" type="bus_bus" depart="694.53" departLane="best" from="267116467" to="9151585#4"/>
    <trip id="bus40" type="bus_bus" depart="712.34" departLane="best" departSpeed="max" from="9137054#0" to="-9119753#2"/>
    <trip id="bus41" type="bus_bus" depart="730.15" departLane="best" from="-1315094301" to="540665092#2"/>
    <trip id="bus43" type="bus_bus" depart="765.77" departLane="best" from="586413259#3" to="-586080837"/>
    <trip id="bus44" type="bus_bus" depart="783.57" departLane="best" from="1044405760#0" to="-9137054#0"/>
    <trip id="bus46" type="bus_bus" depart="819.19" departLane="best" departSpeed="max" from="9137054#0" to="-691528616"/>
    <trip id="bus47" type="bus_bus" depart="837.00" departLane="best" departSpeed="max" from="9137054#0" to="9148332#0"/>
    <trip id="bus48" type="bus_bus" depart="854.81" departLane="best" departSpeed="max" from="-180244639#2" to="1209313235"/>
    <trip id="bus49" type="bus_bus" depart="872.62" departLane="best" from="180244636#4" to="586077896#0"/>
    <trip id="bus50" type="bus_bus" depart="890.42" departLane="best" from="-586413246#5" to="-341623766#0"/>
    <trip id="bus51" type="bus_bus" depart="908.23" departLane="best" departSpeed="max" from="1090698273#0" to="180244639#2"/>
    <trip id="bus52" type="bus_bus" depart="926.04" departLane="best" from="-631611869#1" to="-9127807"/>
    <trip id="bus53" type="bus_bus" depart="943.85" departLane="best" departSpeed="max" from="-9150977#22" to="180244628"/>
    <trip id="bus54" type="bus_bus" depart="961.66" departLane="best" from="-180244639#1" to="565255792#5"/>
    <trip id="bus55" type="bus_bus" depart="979.47" departLane="best" from="9153734#1" to="343541421"/>
    <trip id="bus56" type="bus_bus" depart="997.28" departLane="best" from="-9152018#0" to="1338769043#4"/>
    <trip id="bus57" type="bus_bus" depart="1015.08" departLane="best" from="-9138488#11" to="276157215#2"/>
    <trip id="bus58" type="bus_bus" depart="1032.89" departLane="best" from="180244636#6" to="31031717#1"/>
    <trip id="bus59" type="bus_bus" depart="1050.70" departLane="best" from="586080834" to="9138488#8"/>
    <trip id="bus60" type="bus_bus" depart="1068.51" departLane="best" departSpeed="max" from="9124791#0" to="180244639#0"/>
    <trip id="bus61" type="bus_bus" depart="1086.32" departLane="best" from="-586413246#0" to="415362031#0"/>
    <trip id="bus62" type="bus_bus" depart="1104.13" departLane="best" departSpeed="max" from="-568377840#3" to="-341623766#3"/>
    <trip id="bus64" type="bus_bus" depart="1139.74" departLane="best" from="1090690719#1" to="586413246#17"/>
    <trip id="bus65" type="bus_bus" depart="1157.55" departLane="best" from="828146450#0" to="-565255794"/>
    <trip id="bus66" type="bus_bus" depart="1175.36" departLane="best" departSpeed="max" from="-210830412" to="9151585#1"/>
    <trip id="bus67" type="bus_bus" depart="1193.17" departLane="best" departSpeed="max" from="-9150977#22" to="1088638470"/>
    <trip id="bus69" type="bus_bus" depart="1228.79" departLane="best" departSpeed="max" from="-9148332#11" to="-9138488#12"/>
    <trip id="bus70" type="bus_bus" depart="1246.59" departLane="best" departSpeed="max" from="9124791#0" to="656443274#4"/>
    <trip id="bus71" type="bus_bus" depart="1264.40" departLane="best" from="-540665092#11" to="-988304974"/>
    <trip id="bus73" type="bus_bus" depart="1300.02" departLane="best" from="-9153734#0" to="9122370#4"/>
    <trip id="bus74" type="bus_bus" depart="1317.83" departLane="best" from="267110730#0" to="1338769043#6"/>
    <trip id="bus75" type="bus_bus" depart="1335.64" departLane="best" from="988304974" to="9119204"/>
    <trip id="bus77" type="bus_bus" depart="1371.25" departLane="best" departSpeed="max" from="9122810#0" to="-505368797#1"/>
    <trip id="bus78" type="bus_bus" depart="1389.06" departLane="best" departSpeed="max" from="-9148332#11" to="-180244636#0"/>
    <trip id="bus79" type="bus_bus" depart="1406.87" departLane="best" from="-631611869#1" to="586413246#16"/>
    <trip id="bus80" type="bus_bus" depart="1424.68" departLane="best" from="1044405760#2" to="9150977#4"/>
    <trip id="bus81" type="bus_bus" depart="1442.49" departLane="best" from="343535439" to="-9122810#0"/>
    <trip id="bus82" type="bus_bus" depart="1460.30" departLane="best" from="-9148332#7" to="-267110730#3"/>
    <trip id="bus84" type="bus_bus" depart="1495.91" departLane="best" from="343537873" to="9148332#5"/>
    <trip id="bus85" type="bus_bus" depart="1513.72" departLane="best" departSpeed="max" from="-180244639#2" to="540665092#8"/>
    <trip id="bus86" type="bus_bus" depart="1531.53" departLane="best" from="287145664#0" to="423654396"/>
    <trip id="bus87" type="bus_bus" depart="1549.34" departLane="best" departSpeed="max" from="-586147124" to="290619644#2"/>
    <trip id="bus88" type="bus_bus" depart="1567.15" departLane="best" from="-9150977#2" to="273902602#1"/>
    <trip id="bus90" type="bus_bus" depart="1602.76" departLane="best" from="-568370163" to="551574175#1"/>
    <trip id="bus92" type="bus_bus" depart="1638.38" departLane="best" from="9122810#2" to="-568382083#2"/>
    <trip id="bus93" type="bus_bus" depart="1656.19" departLane="best" from="180244636#7" to="-1044405760#5"/>
    <trip id="bus94" type="bus_bus" depart="1674.00" departLane="best" from="9137054#1" to="371908694#5"/>
    <trip id="bus95" type="bus_bus" depart="1691.81" departLane="best" from="-9142445#1" to="415362031#1"/>
    <trip id="bus97" type="bus_bus" depart="1727.42" departLane="best" from="31031717#1" to="9151585#5"/>
    <trip id="bus98" type="bus_bus" depart="1745.23" departLane="best" from="-415362031#4" to="-1044405760#4"/>
    <trip id="bus99" type="bus_bus" depart="1763.04" departLane="best" from="9119753#4" to="-9122810#0"/>
    <trip id="bus100" type="bus_bus" depart="1780.85" departLane="best" from="287145664#0" to="-290619644#0"/>
    <trip id="bus101" type="bus_bus" depart="1798.66" departLane="best" from="267110730#0" to="180244645"/>
    <trip id="bus102" type="bus_bus" depart="1816.47" departLane="best" from="343537871" to="9119753#3"/>
    <trip id="bus103" type="bus_bus" depart="1834.27" departLane="best" from="-1315066558" to="9138488#8"/>
    <trip id="bus104" type="bus_bus" depart="1852.08" departLane="best" from="9122370#6" to="276157215#2"/>
    <trip id="bus105" type="bus_bus" depart="1869.89" departLane="best" from="1044405760#10" to="586147124"/>
    <trip id="bus106" type="bus_bus" depart="1887.70" departLane="best" from="-343541421" to="9119753#1"/>
    <trip id="bus107" type="bus_bus" depart="1905.51" departLane="best" from="586002130#1" to="180244639#2"/>
    <trip id="bus108" type="bus_bus" depart="1923.32" departLane="best" from="-9150977#3" to="-1044405760#5"/>
    <trip id="bus109" type="bus_bus" depart="1941.13" departLane="best" from="9138488#7" to="180244639#1"/>
    <trip id="bus111" type="bus_bus" depart="1976.74" departLane="best" from="-9138488#3" to="-586080834"/>
    <trip id="bus112" type="bus_bus" depart="1994.55" departLane="best" from="-586413246#18" to="-276157224#0"/>
    <trip id="bus113" type="bus_bus" depart="2012.36" departLane="best" from="586413263#1" to="-9137054#4"/>
    <trip id="bus114" type="bus_bus" depart="2030.17" departLane="best" from="-9148332#3" to="-287145664#1"/>
    <trip id="bus115" type="bus_bus" depart="2047.98" departLane="best" from="9124791#3" to="9150977#22"/>
    <trip id="bus116" type="bus_bus" depart="2065.78" departLane="best" from="9119204" to="-9137054#1"/>
    <trip id="bus117" type="bus_bus" depart="2083.59" departLane="best" from="-9152018#3" to="568373941#1"/>
    <trip id="bus119" type="bus_bus" depart="2119.21" departLane="best" from="631611867" to="287145656#4"/>
    <trip id="bus120" type="bus_bus" depart="2137.02" departLane="best" from="9130541#4" to="-9122370#1"/>
    <trip id="bus121" type="bus_bus" depart="2154.83" departLane="best" from="-586077896#0" to="631611869#1"/>
    <trip id="bus122" type="bus_bus" depart="2172.64" departLane="best" from="1044405760#7" to="-9124791#0"/>
    <trip id="bus123" type="bus_bus" depart="2190.44" departLane="best" from="656443274#0" to="-586413246#4"/>
    <trip id="bus124" type="bus_bus" depart="2208.25" departLane="best" from="9130541#4" to="9122370#6"/>
    <trip id="bus126" type="bus_bus" depart="2243.87" departLane="best" from="-371908694#0" to="9147358#0"/>
    <trip id="bus128" type="bus_bus" depart="2279.49" departLane="best" from="267110730#1" to="9151585#4"/>
    <trip id="bus129" type="bus_bus" depart="2297.30" departLane="best" from="568380593" to="-9124791#3"/>
    <trip id="bus130" type="bus_bus" depart="2315.10" departLane="best" from="-290619644#2" to="-1333430095#1"/>
    <trip id="bus132" type="bus_bus" depart="2350.72" departLane="best" from="-586413246#5" to="540665092#8"/>
    <trip id="bus134" type="bus_bus" depart="2386.34" departLane="best" from="-180244639#0" to="565245611#1"/>
    <trip id="bus135" type="bus_bus" depart="2404.15" departLane="best" from="-586077896#0" to="415362031#1"/>
    <trip id="bus136" type="bus_bus" depart="2421.95" departLane="best" from="-9142394#3" to="-180244637#1"/>
    <trip id="bus137" type="bus_bus" depart="2439.76" departLane="best" from="423728989" to="-9137054#1"/>
    <trip id="bus139" type="bus_bus" depart="2475.38" departLane="best" departSpeed="max" from="-9148332#11" to="-9122810#0"/>
    <trip id="bus140" type="bus_bus" depart="2493.19" departLane="best" from="276157217" to="-9148332#9"/>
    <trip id="bus142" type="bus_bus" depart="2528.81" departLane="best" from="1044405760#0" to="-9122370#0"/>
    <trip id="bus143" type="bus_bus" depart="2546.61" departLane="best" from="-9151585#0" to="-267110730#3"/>
    <trip id="bus144" type="bus_bus" depart="2564.42" departLane="best" from="423654395" to="1088638458"/>
    <trip id="bus145" type="bus_bus" depart="2582.23" departLane="best" from="656443274#1" to="-505368797#4"/>
    <trip id="bus146" type="bus_bus" depart="2600.04" departLane="best" departSpeed="max" from="-180244639#2" to="1338769043#2"/>
    <trip id="bus147" type="bus_bus" depart="2617.85" departLane="best" from="343535439" to="9138488#0"/>
    <trip id="bus149" type="bus_bus" depart="2653.47" departLane="best" from="-540665092#8" to="-1209313234"/>
    <trip id="bus150" type="bus_bus" depart="2671.27" departLane="best" from="-586413246#15" to="1090698273#1"/>
    <trip id="bus151" type="bus_bus" depart="2689.08" departLane="best" departSpeed="max" from="9122810#0" to="180244639#1"/>
    <trip id="bus152" type="bus_bus" depart="2706.89" departLane="best" from="-9148332#9" to="31031717#0"/>
    <trip id="bus153" type="bus_bus" depart="2724.70" departLane="best" from="-1315070421#0" to="656443274#0"/>
    <trip id="bus154" type="bus_bus" depart="2742.51" departLane="best" from="423654396" to="-1044405760#2"/>
    <trip id="bus155" type="bus_bus" depart="2760.32" departLane="best" from="586413246#1" to="586147124"/>
    <trip id="bus156" type="bus_bus" depart="2778.12" departLane="best" from="267110730#0" to="9150977#2"/>
    <trip id="bus158" type="bus_bus" depart="2813.74" departLane="best" from="1044405760#3" to="586413259#1"/>
    <trip id="bus159" type="bus_bus" depart="2831.55" departLane="best" from="505368797#2" to="9151585#6"/>
    <trip id="bus160" type="bus_bus" depart="2849.36" departLane="best" from="287145664#1" to="9148332#11"/>
    <trip id="bus161" type="bus_bus" depart="2867.17" departLane="best" from="9138488#12" to="283536956#2"/>
    <trip id="bus162" type="bus_bus" depart="2884.98" departLane="best" from="-9138488#2" to="568377840#3"/>
    <trip id="bus163" type="bus_bus" depart="2902.78" departLane="best" departSpeed="max" from="1090698273#0" to="-9119204"/>
    <trip id="bus164" type="bus_bus" depart="2920.59" departLane="best" from="-586413246#17" to="-341624737#0"/>
    <trip id="bus165" type="bus_bus" depart="2938.40" departLane="best" from="586413246#5" to="1338769044#0"/>
    <trip id="bus167" type="bus_bus" depart="2974.02" departLane="best" from="-656443274#2" to="-9130541#2"/>
    <trip id="bus168" type="bus_bus" depart="2991.83" departLane="best" from="180244645" to="-341635866"/>
    <trip id="bus169" type="bus_bus" depart="3009.63" departLane="best" departSpeed="max" from="-586147124" to="-533665196#0"/>
    <trip id="bus170" type="bus_bus" depart="3027.44" departLane="best" from="565245609#0" to="-180244636#5"/>
    <trip id="bus171" type="bus_bus" depart="3045.25" departLane="best" from="-9148332#4" to="180244637#1"/>
    <trip id="bus172" type="bus_bus" depart="3063.06" departLane="best" from="-9150977#21" to="9138488#8"/>
    <trip id="bus173" type="bus_bus" depart="3080.87" departLane="best" departSpeed="max" from="9124791#0" to="586080833"/>
    <trip id="bus175" type="bus_bus" depart="3116.49" departLane="best" from="-9138488#6" to="-568382083#3"/>
    <trip id="bus176" type="bus_bus" depart="3134.29" departLane="best" from="9122810#1" to="9148332#11"/>
    <trip id="bus177" type="bus_bus" depart="3152.10" departLane="best" from="-9150977#2" to="-568380593"/>
    <trip id="bus178" type="bus_bus" depart="3169.91" departLane="best" from="568370164" to="277745441"/>
    <trip id="bus179" type="bus_bus" depart="3187.72" departLane="best" from="-9151585#5" to="1315066561"/>
    <trip id="bus180" type="bus_bus" depart="3205.53" departLane="best" departSpeed="max" from="-9147358#2" to="210830412"/>
    <trip id="bus181" type="bus_bus" depart="3223.34" departLane="best" departSpeed="max" from="-1209313235" to="341635867#0"/>
    <trip id="bus182" type="bus_bus" depart="3241.15" departLane="best" from="287145664#1" to="-1044405760#8"/>
    <trip id="bus184" type="bus_bus" depart="3276.76" departLane="best" departSpeed="max" from="-568377840#3" to="-9137054#0"/>
    <trip id="bus186" type="bus_bus" depart="3312.38" departLane="best" from="-586413246#4" to="-267110730#0"/>
    <trip id="bus187" type="bus_bus" depart="3330.19" departLane="best" departSpeed="max" from="-1090698273#3" to="-180244636#7"/>
    <trip id="bus188" type="bus_bus" depart="3348.00" departLane="best" from="-415362031#0" to="586413246#14"/>
    <trip id="bus189" type="bus_bus" depart="3365.80" departLane="best" from="-415362031#1" to="586002129"/>
    <trip id="bus190" type="bus_bus" depart="3383.61" departLane="best" from="-9147358#0" to="-568382083#1"/>
    <trip id="bus191" type="bus_bus" depart="3401.42" departLane="best" departSpeed="max" from="-1090698273#3" to="371908694#1"/>
    <trip id="bus192" type="bus_bus" depart="3419.23" departLane="best" from="-276157217" to="415362031#0"/>
    <trip id="bus193" type="bus_bus" depart="3437.04" departLane="best" from="-273902602#1" to="-586413246#13"/>
    <trip id="bus194" type="bus_bus" depart="3454.85" departLane="best" from="551576182" to="-586080834"/>
    <trip id="bus195" type="bus_bus" depart="3472.66" departLane="best" from="372398472" to="277745441"/>
    <trip id="bus196" type="bus_bus" depart="3490.46" departLane="best" from="586080834" to="-290619644#0"/>
    <trip id="bus198" type="bus_bus" depart="3526.08" departLane="best" from="267110730#1" to="1315066558"/>
    <trip id="bus201" type="bus_bus" depart="3579.51" departLane="best" from="-9150977#3" to="-9142394#3"/>
    <trip id="bus202" type="bus_bus" depart="3597.32" departLane="best" departSpeed="max" from="9122810#0" to="656443274#2"/>
    <trip id="bus204" type="bus_bus" depart="3632.93" departLane="best" from="343537877" to="656443275"/>
    <trip id="bus205" type="bus_bus" depart="3650.74" departLane="best" from="565245609#0" to="9151585#5"/>
    <trip id="bus206" type="bus_bus" depart="3668.55" departLane="best" from="-180244639#0" to="1209313235"/>
    <trip id="bus207" type="bus_bus" depart="3686.36" departLane="best" from="-9151585#5" to="565255792#6"/>
    <trip id="bus210" type="bus_bus" depart="3739.78" departLane="best" from="9137054#2" to="656443274#0"/>
    <trip id="bus211" type="bus_bus" depart="3757.59" departLane="best" from="1088638458" to="283536956#0"/>
    <trip id="bus212" type="bus_bus" depart="3775.40" departLane="best" departSpeed="max" from="9122810#0" to="540665092#5"/>
    <trip id="bus213" type="bus_bus" depart="3793.21" departLane="best" departSpeed="max" from="-568377840#3" to="586413254#1"/>
    <trip id="bus214" type="bus_bus" depart="3811.02" departLane="best" from="-9138488#12" to="-9137054#1"/>
    <trip id="bus215" type="bus_bus" depart="3828.83" departLane="best" from="1044405760#6" to="-9148332#1"/>
    <trip id="bus216" type="bus_bus" depart="3846.63" departLane="best" departSpeed="max" from="-180244639#2" to="565245611#1"/>
    <trip id="bus217" type="bus_bus" depart="3864.44" departLane="best" from="-1315066558" to="586002131#0"/>
    <trip id="bus218" type="bus_bus" depart="3882.25" departLane="best" from="-540665092#8" to="-343537871"/>
    <trip id="bus219" type="bus_bus" depart="3900.06" departLane="best" from="-1315066560" to="586413246#6"/>
    <trip id="bus220" type="bus_bus" depart="3917.87" departLane="best" from="-540665092#9" to="-9124791#0"/>
    <trip id="bus221" type="bus_bus" depart="3935.68" departLane="best" from="-276157224#1" to="1090698273#1"/>
    <trip id="bus222" type="bus_bus" depart="3953.49" departLane="best" from="586080832" to="-9137054#2"/>
    <trip id="bus223" type="bus_bus" depart="3971.29" departLane="best" from="-586413246#3" to="290619644#2"/>
    <trip id="bus224" type="bus_bus" depart="3989.10" departLane="best" from="-540665092#3" to="-290619644#1"/>
    <trip id="bus225" type="bus_bus" depart="4006.91" departLane="best" from="-180244637#0" to="586077896#1"/>
    <trip id="bus226" type="bus_bus" depart="4024.72" departLane="best" from="533665196#1" to="-586413246#12"/>
    <trip id="bus227" type="bus_bus" depart="4042.53" departLane="best" from="-9150977#2" to="1339425865#0"/>
    <trip id="bus228" type="bus_bus" depart="4060.34" departLane="best" from="828146451" to="276157215#9"/>
    <trip id="bus229" type="bus_bus" depart="4078.14" departLane="best" from="540665092#4" to="-586413246#4"/>
    <trip id="bus230" type="bus_bus" depart="4095.95" departLane="best" from="-9150977#15" to="180244645"/>
    <trip id="bus231" type="bus_bus" depart="4113.76" departLane="best" from="551574176#0" to="-341623766#0"/>
    <trip id="bus232" type="bus_bus" depart="4131.57" departLane="best" from="9130541#1" to="129601762#1"/>
    <trip id="bus234" type="bus_bus" depart="4167.19" departLane="best" departSpeed="max" from="1090690719#0" to="9152018#2"/>
    <trip id="bus235" type="bus_bus" depart="4185.00" departLane="best" from="533665196#1" to="1338769043#6"/>
    <trip id="bus238" type="bus_bus" depart="4238.42" departLane="best" from="180244636#8" to="31031717#0"/>
    <trip id="bus239" type="bus_bus" depart="4256.23" departLane="best" from="-1338769043#3" to="-371908690#1"/>
    <trip id="bus240" type="bus_bus" depart="4274.04" departLane="best" from="-273902602#0" to="-9122810#2"/>
    <trip id="bus241" type="bus_bus" depart="4291.85" departLane="best" from="-9153734#0" to="-290619644#0"/>
    <trip id="bus242" type="bus_bus" depart="4309.65" departLane="best" from="-586413246#4" to="277745441"/>
    <trip id="bus243" type="bus_bus" depart="4327.46" departLane="best" from="277745444" to="-1044405760#1"/>
    <trip id="bus244" type="bus_bus" depart="4345.27" departLane="best" from="-9153734#0" to="9122370#3"/>
    <trip id="bus245" type="bus_bus" depart="4363.08" departLane="best" from="341623766#2" to="283536956#0"/>
    <trip id="bus246" type="bus_bus" depart="4380.89" departLane="best" from="586002131#0" to="9148332#1"/>
    <trip id="bus247" type="bus_bus" depart="4398.70" departLane="best" from="-568377840#0" to="180244628"/>
    <trip id="bus248" type="bus_bus" depart="4416.51" departLane="best" from="-423655377#1" to="415362031#0"/>
    <trip id="bus249" type="bus_bus" depart="4434.31" departLane="best" from="-415362031#4" to="-180244652#2"/>
    <trip id="bus250" type="bus_bus" depart="4452.12" departLane="best" departSpeed="max" from="-586147124" to="540665092#6"/>
    <trip id="bus251" type="bus_bus" depart="4469.93" departLane="best" departSpeed="max" from="563606218" to="-1044405760#2"/>
    <trip id="bus253" type="bus_bus" depart="4505.55" departLane="best" from="631611867" to="290619644#2"/>
    <trip id="bus255" type="bus_bus" depart="4541.17" departLane="best" departSpeed="max" from="-9150977#22" to="180244639#0"/>
    <trip id="bus256" type="bus_bus" depart="4558.97" departLane="best" from="-371908694#3" to="-9124791#0"/>
    <trip id="bus258" type="bus_bus" depart="4594.59" departLane="best" from="-9119753#2" to="-341623766#0"/>
    <trip id="bus260" type="bus_bus" depart="4630.21" departLane="best" from="-9129472" to="656443274#5"/>
    <trip id="bus261" type="bus_bus" depart="4648.02" departLane="best" departSpeed="max" from="-210830412" to="9148332#6"/>
    <trip id="bus263" type="bus_bus" depart="4683.63" departLane="best" from="-9147358#0" to="-988304974"/>
    <trip id="bus265" type="bus_bus" depart="4719.25" departLane="best" from="-1315070421#1" to="586002130#0"/>
    <trip id="bus266" type="bus_bus" depart="4737.06" departLane="best" departSpeed="max" from="1090690719#0" to="-371908690#0"/>
    <trip id="bus267" type="bus_bus" depart="4754.87" departLane="best" from="9142338#3" to="540665092#4"/>
    <trip id="bus268" type="bus_bus" depart="4772.68" departLane="best" from="283536956#1" to="-341623766#3"/>
    <trip id="bus269" type="bus_bus" depart="4790.48" departLane="best" from="-1315066560" to="-276157215#1"/>
    <trip id="bus270" type="bus_bus" depart="4808.29" departLane="best" from="-9138488#3" to="-9137054#4"/>
    <trip id="bus271" type="bus_bus" depart="4826.10" departLane="best" from="505368797#4" to="-9122370#1"/>
    <trip id="bus272" type="bus_bus" depart="4843.91" departLane="best" from="-9119753#2" to="180244639#2"/>
    <trip id="bus273" type="bus_bus" depart="4861.72" departLane="best" from="1044405760#2" to="-9127807"/>
    <trip id="bus274" type="bus_bus" depart="4879.53" departLane="best" from="-568373941#0" to="9150977#2"/>
    <trip id="bus275" type="bus_bus" depart="4897.34" departLane="best" from="-9151585#6" to="371908694#4"/>
    <trip id="bus276" type="bus_bus" depart="4915.14" departLane="best" from="-540665092#1" to="-9142338#0"/>
    <trip id="bus277" type="bus_bus" depart="4932.95" departLane="best" from="586413246#14" to="290619644#2"/>
    <trip id="bus279" type="bus_bus" depart="4968.57" departLane="best" from="-9152018#0" to="540665092#1"/>
    <trip id="bus280" type="bus_bus" depart="4986.38" departLane="best" from="-276157215#5" to="9150977#22"/>
    <trip id="bus281" type="bus_bus" depart="5004.19" departLane="best" from="568377839" to="631611869#0"/>
    <trip id="bus282" type="bus_bus" depart="5021.99" departLane="best" from="267110730#1" to="276157215#2"/>
    <trip id="bus283" type="bus_bus" depart="5039.80" departLane="best" from="-9152018#2" to="9142394#1"/>
    <trip id="bus284" type="bus_bus" depart="5057.61" departLane="best" from="1044405760#7" to="-290619644#0"/>
    <trip id="bus286" type="bus_bus" depart="5093.23" departLane="best" from="-9151585#0" to="656443274#0"/>
    <trip id="bus288" type="bus_bus" depart="5128.85" departLane="best" departSpeed="max" from="9137054#0" to="9122370#6"/>
    <trip id="bus289" type="bus_bus" depart="5146.65" departLane="best" from="-656443274#6" to="586413246#4"/>
    <trip id="bus291" type="bus_bus" depart="5182.27" departLane="best" from="-1315066559" to="-371908690#0"/>
    <trip id="bus292" type="bus_bus" depart="5200.08" departLane="best" from="-180244639#1" to="-9138488#16"/>
    <trip id="bus293" type="bus_bus" depart="5217.89" departLane="best" from="267110730#1" to="180244637#1"/>
    <trip id="bus294" type="bus_bus" depart="5235.70" departLane="best" from="1044405760#3" to="-9130541#4"/>
    <trip id="bus296" type="bus_bus" depart="5271.31" departLane="best" from="-9151585#0" to="1315066558"/>
    <trip id="bus297" type="bus_bus" depart="5289.12" departLane="best" from="180244636#1" to="-1044405760#4"/>
    <trip id="bus298" type="bus_bus" depart="5306.93" departLane="best" from="-568370163" to="-9148332#10"/>
    <trip id="bus299" type="bus_bus" depart="5324.74" departLane="best" from="423654395" to="371908694#4"/>