<?xml version="1.0" encoding="UTF-8"?>

<!-- generated on 2025-03-02 09:02:45.105741 by osmWebWizard.py v1_21_0+0000-d7b3b481c43
<configuration>
    <net-file value="C:\Users\evans\Sumo\2025-03-02-09-02-35\osm.net.xml.gz"/>
    <additional-files value="C:\Users\evans\Sumo\2025-03-02-09-02-35\osm_stops.add.xml,C:\Users\evans\Sumo\2025-03-02-09-02-35\osm_pt.rou.xml"/>
    <output-trip-file value="C:\Users\evans\Sumo\2025-03-02-09-02-35\osm.pedestrian.trips.xml"/>
    <route-file value="C:\Users\evans\Sumo\2025-03-02-09-02-35\osm.pedestrian.rou.xml"/>
    <persontrips value="True"/>
    <persontrip.walk-opposite-factor value="0.8"/>
    <prefix value="ped"/>
    <trip-attributes value="modes=&quot;public&quot;"/>
    <vehicle-class value="pedestrian"/>
    <fringe-factor value="1"/>
    <end value="86400.0"/>
    <insertion-density value="10.0"/>
    <duarouter-weights.tls-penalty value="20"/>
</configuration>
-->

<!-- generated on 2025-03-02 09:02:43 by Eclipse SUMO duarouter Version 1.21.0
<duarouterConfiguration xmlns:xsi="http://www.w3.org/2001/XMLSchema-instance" xsi:noNamespaceSchemaLocation="http://sumo.dlr.de/xsd/duarouterConfiguration.xsd">

    <input>
        <net-file value="C:\Users\evans\Sumo\2025-03-02-09-02-35\osm.net.xml.gz"/>
        <additional-files value="C:\Users\evans\Sumo\2025-03-02-09-02-35\osm_stops.add.xml,C:\Users\evans\Sumo\2025-03-02-09-02-35\osm_pt.rou.xml"/>
        <route-files value="C:\Users\evans\Sumo\2025-03-02-09-02-35\osm.pedestrian.trips.xml"/>
    </input>

    <output>
        <output-file value="C:\Users\evans\Sumo\2025-03-02-09-02-35\osm.pedestrian.rou.xml"/>
        <alternatives-output value="NUL"/>
    </output>

    <processing>
        <weights.tls-penalty value="20"/>
        <persontrip.walk-opposite-factor value="0.8"/>
    </processing>

    <time>
        <begin value="0.0"/>
        <end value="86400.0"/>
    </time>

    <report>
        <no-warnings value="true"/>
        <ignore-errors value="true"/>
        <no-step-log value="true"/>
    </report>

</duarouterConfiguration>
-->

<routes xmlns:xsi="http://www.w3.org/2001/XMLSchema-instance" xsi:noNamespaceSchemaLocation="http://sumo.dlr.de/xsd/routes_file.xsd">
    <vType id="ped_pedestrian" vClass="pedestrian"/>
    <person id="ped0" type="ped_pedestrian" depart="0.00">
        <walk edges="225485353#3 372765901#0 372765901#1 372765901#2 372765901#3 372765901#4 -183191774#0 -183191745#0"/>
    </person>
    <person id="ped4" type="ped_pedestrian" depart="35.19">
        <walk edges="225466099#2 225466096#3 225466096#2 225466096#1 1050574263 1050574262#1 225466123#2 225466135#1 225466135#0 225466097#0 225466097#1 225485350#1 225485350#0 225485361#2 225485342 225485347#1 225485330#1 225485346#2 -183191792#5 -183191792#4"/>
    </person>
    <person id="ped6" type="ped_pedestrian" depart="52.79">
        <walk edges="-183191792#0 183191792#1 183191792#2 183191792#3 183191792#4 183191792#5 183191792#6 -585997480 183191774#0 372765901#4 372765901#3 372765901#2 372765901#1 372765901#0 225466111#3 225466111#2 -563602686#0"/>
    </person>
    <person id="ped7" type="ped_pedestrian" depart="61.59">
        <walk edges="225485362#1 225466102#1 225446903#1 225446903#0 1134398600#1 1134398600#2 1134398602 1134398601#1 225470243#2 225470243#1 225470243#0 225470240#3 225470240#2 225470240#1 225470240#0 225470250#1 225470252#5"/>
    </person>
    <person id="ped9" type="ped_pedestrian" depart="79.19">
        <walk edges="561883408#0 -563616189#0 -561883400 -561883410#0 287145656#3 287145656#4 551576182 656443275 656443273 656443274#0 656443274#1 656443274#2 656443274#3 656443274#4 656443274#5 656443274#6 586077896#0 586077896#1 586077896#3 1339425865#0 1339425865#1 540665092#0 540665092#1 540665092#2 540665092#3 540665092#4 -540665092#4 -540665092#3 -540665092#2 -540665092#1 -540665092#0 -1339425865#1 -1339425865#0 -586077896#3 -586077896#1 -586077896#0 -551576183 -1121887296"/>
    </person>
    <person id="ped12" type="ped_pedestrian" depart="105.58">
        <walk edges="586077896#1 586077896#3 1339425865#0 1339425865#1 540665092#0 540665092#1 540665092#2 540665092#3 540665092#4 -540665092#4 -540665092#3 -540665092#2 -540665092#1 -540665092#0 -1339425865#1 -1339425865#0 -586077896#3 -586077896#1 -586077896#0 -656443274#6 -656443274#5 -656443274#4 -656443274#3 -656443274#2 -656443274#1 -656443274#0 -656443273 -656443275 -551576182 -287145656#4 -287145656#3 -287145656#2 169152446#0"/>
    </person>
    <person id="ped14" type="ped_pedestrian" depart="123.18">
        <walk edges="563602539 -180244632#2 -180244632#1 778437842#1 778437844#1 778437844#0 225470244#2 225470244#3 225470244#4 225466128#3 225466118#1 225466118#0 225466102#4 225466102#3 225466100#5 225466100#4 225466100#3 225485325#0 225485325#1"/>
    </person>
    <person id="ped16" type="ped_pedestrian" depart="140.77">
        <walk edges="225470245#2 225470257 225470244#0 778437843#0 778437843#1 778437842#2 778437842#1 778437842#0"/>
    </person>
    <person id="ped17" type="ped_pedestrian" depart="149.57">
        <walk edges="225446893#2 225446893#1 225466115#3 225470262#0"/>
    </person>
    <person id="ped24" type="ped_pedestrian" depart="211.16">
        <walk edges="225485350#3 225485327#1 225485327#0 225485361#4 225485361#3 225485361#2 225485342 225485347#1 225485330#1 225485346#2 -183191792#5 -183191792#4 -183191792#3 183191792#2"/>
    </person>
    <person id="ped25" type="ped_pedestrian" depart="219.96">
        <walk edges="225446890 225446896#1 225446893#0 585995063#4 585995063#3 585995063#2 585995064#0 225485334 225446891#3 335766015#2 -335765986#6 -563620266"/>
    </person>
    <person id="ped27" type="ped_pedestrian" depart="237.56">
        <walk edges="225485361#5 225485361#4 225485361#3 225485361#2 225485342 225485347#1 225485330#1"/>
    </person>
    <person id="ped28" type="ped_pedestrian" depart="246.36">
        <walk edges="-563602539 -180244632#2 -180244632#1 778437842#1 778437842#2 372398473#1"/>
    </person>
    <person id="ped30" type="ped_pedestrian" depart="263.95">
        <walk edges="837196488 -180244632#2 -180244632#1 778437842#1 778437844#1 778437844#0 225470244#2 225470244#3 225470244#4 225466128#3 225466118#1 225466118#0 225466102#4 225466102#3 225466100#5 225466100#4 225466100#3 225466100#2 225466100#1 517434099 225485338#0 225485361#0 225485361#1 225485361#2 225485354"/>
    </person>
    <person id="ped36" type="ped_pedestrian" depart="316.74">
        <walk edges="563602658 183191792#3 183191792#4 183191792#5 225485346#2 225485330#1 225485347#1 225485342 225485361#2 225485350#0 225485350#1 225466097#2 225466097#3 225466097#4 225466098#1 225466108 225446900#0 1134398602 1134398601#2"/>
    </person>
    <person id="ped37" type="ped_pedestrian" depart="325.54">
        <walk edges="225486065#0 225485353#3 372765901#0 372765901#1 225477832#1 225485327#1 225485350#2 225466097#2 225466097#3 225466097#4 225466098#1 225466108 225446900#0 1134398600#2 1134398600#1 225569131 225466081#3 225466081#2"/>
    </person>
    <person id="ped39" type="ped_pedestrian" depart="343.14">
        <walk edges="-656443274#5 -656443274#4 -656443274#3 -656443274#2 -656443274#1 -656443274#0 -656443273 -656443275 563620363 656443276 -563620362"/>
    </person>
    <person id="ped41" type="ped_pedestrian" depart="360.73">
        <walk edges="225473223#1 225466107#1 225466107#2 225466107#3 1050574279#1 1050574279#2 1050574279#3 1050574279#4 -543914346#0 183191792#3 183191792#4 183191792#5 225485346#2 225485330#1 225485347#1 225485342 225485361#2 225485350#0 225485350#1 225466097#1 225466097#0 225466135#0 225466135#1 225466123#2 1050574262#1 1050574263 225466090#0 225466090#1 225466083#0 225466083#1 225466094#3 225466094#2 225466122 225466124#8 -563602478 -563602666#0 -563602475#0 -335765986#6 -335765986#5 -335765986#4 -563620274 563620273"/>
    </person>
    <person id="ped43" type="ped_pedestrian" depart="378.33">
        <walk edges="920874877#3 920874877#4 -372396764#3 -372396764#0 225470252#5 225470250#2 225470264#1 225470264#0 225470234#2"/>
    </person>
    <person id="ped46" type="ped_pedestrian" depart="404.73">
        <walk edges="543914344#1 1050574279#4 -543914346#0 183191792#3 183191792#4 183191792#5 225485346#2 225485330#1 225485347#1 225485342 225485361#2 225485350#0 225485350#1 225466097#1 225466097#0 225466135#0 225466135#1 225466123#2 1050574262#1 1050574263 225466096#1 225466096#2 225466096#3 225466099#2"/>
    </person>
    <person id="ped47" type="ped_pedestrian" depart="413.52">
        <walk edges="-335765986#4 335765986#5 335765986#6 335765986#8 563602475#1 563602478 225466124#8 225466122 225466094#2 225466094#3 225466083#1 225466105#2 225466105#1 225466080#2 225466080#1 225466080#0 225470238 1134398594 225470243#2 1134398601#1 1134398601#2 1134398600#4 225569126 225446899#0"/>
    </person>
    <person id="ped48" type="ped_pedestrian" depart="422.32">
        <walk edges="920874877#1 920874877#2 920874877#3 920874877#4 -372396764#3 -372396764#0 225470252#5 225470250#1 225470240#0 225470240#1 225470240#2 225470240#3 225470243#0 225470243#1 225470243#2"/>
    </person>
    <person id="ped50" type="ped_pedestrian" depart="439.92">
        <walk edges="-1339425865#1 -540665092#0 -540665092#1 -540665092#2 -540665092#3 -540665092#4 540665092#4 540665092#3 540665092#2 540665092#1 540665092#0 1339425865#1 353960847 353960850"/>
    </person>
    <person id="ped54" type="ped_pedestrian" depart="475.11">
        <walk edges="225466114#0 585995065#1"/>
    </person>
    <person id="ped58" type="ped_pedestrian" depart="510.31">
        <walk edges="1050574279#5 543914346#2 543914347 183191792#5 183191792#6 -585997480 183191774#0 372765901#4 372765901#3 372765901#2 372765901#1 372765901#0 225485353#3"/>
    </person>
    <person id="ped65" type="ped_pedestrian" depart="571.90">
        <walk edges="1134398598 225569131 1134398600#1 1134398600#2 1134398602 1134398601#1 225470243#2 1134398594 225470238 225466080#0 225466080#1 225466080#2 225466105#1 225466105#2 225466083#1 225466083#2 225466124#6 225466121#1 225466093#0 -335765983#0"/>
    </person>
    <person id="ped66" type="ped_pedestrian" depart="580.69">
        <walk edges="563602665#1 225466124#10 225446893#2 225446901 585995063#5 585995063#4 585995063#3"/>
    </person>
    <person id="ped70" type="ped_pedestrian" depart="615.89">
        <walk edges="225466124#10 225446893#2 225446893#1 225466115#3 225470262#0 225470252#3 225470252#4 372707393 1050574260#0 225470274#1 225470274#2 1050574261#1 1050574261#0 225470265#2 225470265#1 225470236#0 225470236#1 225470236#2 225470236#3 225470258#1 225470258#0"/>
    </person>
    <person id="ped72" type="ped_pedestrian" depart="633.48">
        <walk edges="225466100#0 225466100#1 225466100#2 225485325#0 1134398604 225466097#4 1134398607 225466134 225466137#2 1134398608#1 1134398608#0 225466099#1 225466096#3 225466129#1 225466129#0 225466083#0 225466083#1 225466094#3 225466094#2 225466122 225466124#8 -563602478 -563602666#0 -563602475#0 -335765986#6 -335765986#5 -563620264 -563620271"/>
    </person>
    <person id="ped73" type="ped_pedestrian" depart="642.28">
        <walk edges="225470250#0 225470250#1 -225470252#5 372707393"/>
    </person>
    <person id="ped74" type="ped_pedestrian" depart="651.08">
        <walk edges="-563616188#0 -372396764#6 -372396764#5 -372396764#4 -372396764#3 -372396764#0 225470252#5 225470250#1 225470240#0 225470240#1 225470240#2 225470240#3 225470243#0 225470243#1 225470243#2 1134398601#1 1134398602 1134398600#3"/>
    </person>
    <person id="ped75" type="ped_pedestrian" depart="659.88">
        <walk edges="920874877#0 -563616188#3 -563616188#2 -563616188#1 -563616188#0 -372396764#6 -372396764#5 -372396764#4 -372396764#3 -372396764#0 225470252#5 225470250#1 225470240#0 225470240#1 225470240#2 225470240#3 225470243#0 225470243#1 225470243#2 1134398601#1 1134398602 1134398600#2 1134398600#1 225446903#0 225446903#1 225466102#1 225485362#1"/>
    </person>
    <person id="ped76" type="ped_pedestrian" depart="668.68">
        <walk edges="225466107#0 225466107#1 225466107#2 225466107#3 1050574279#1 1050574279#2 1050574279#3 1050574279#4 -543914346#0 183191792#3 183191792#4 183191792#5 225485346#2 225485330#1 225485347#1 225485342 225485361#2 225485350#0 225485350#1 225466097#2 225466097#3 225466097#4 225466098#1 225466108 225466110#4 225466110#3 225466110#2 225466110#1 225466110#0 225470359#0 225485323#1 225485323#0 778437847 225470357#2 778437849 225470234#1 225470234#0 225470233#0 225485336#4 225470276 225470237 225470236#0 225470236#1 225470236#2 225470236#3 225470236#4 225470236#5 225470236#6 225470236#7"/>
    </person>
    <person id="ped80" type="ped_pedestrian" depart="703.87">
        <walk edges="-372396764#0 225470252#5 225470250#1 225470240#0 225470240#1 225470240#2 225470240#3 225470243#0 225470267#0 225470267#1 1134398595#1 225466137#4 225466137#3 225466137#2 225466137#1 225466103 225466097#2 225485350#1 225485350#0 225485361#2 225485342 225485347#1 225485347#2"/>
    </person>
    <person id="ped82" type="ped_pedestrian" depart="721.47">
        <walk edges="563602575#3 563602575#2 563602571 563602572#2 -563602576 225486058 225470236#2 225470236#1 225470236#0 225470237 225470246#1 225470245#2 225470257 225470244#0 778437843#0 778437843#1 778437842#2 778437842#1 180244632#1 563602548 837196490 837196485#3 440267648#2 -440267647 -372376369#1"/>
    </person>
    <person id="ped86" type="ped_pedestrian" depart="756.66">
        <walk edges="225466123#3 225466123#4 335766013#2 225470238 1134398594 225470243#2 1134398601#1 1134398602 1134398600#2 1134398600#1 225446903#0 225446903#1 225466102#1 225485362#1 225485362#0 225485333#0 543821135"/>
    </person>
    <person id="ped89" type="ped_pedestrian" depart="783.06">
        <walk edges="225466100#1 225466100#2 225485325#0 1134398604 225466097#4 1134398607 225466134 225466137#2 1134398608#1 1134398608#0 225466099#1 225466096#3 225466129#1 225466120#1"/>
    </person>
    <person id="ped90" type="ped_pedestrian" depart="791.86">
        <walk edges="372398473#1 778437843#1 778437843#0 225470244#0 225470257 225470245#2 225470246#1 225470246#0 225470253#0 225470250#2 -225470252#5 -225470252#4 -225470252#3 225470262#0 225466115#3 225446896#1 225446890 225572146"/>
    </person>
    <person id="ped94" type="ped_pedestrian" depart="827.05">
        <walk edges="-563602656 183191792#5 183191792#6 -585997480 183191774#0 372765901#4 372765901#3 372765901#2 372765901#1 372765901#0 225466111#3 225466111#2 225466111#1"/>
    </person>
    <person id="ped95" type="ped_pedestrian" depart="835.85">
        <walk edges="225466099#2 225466099#1 335766013#1 335766013#0 225486056 346382722#1 225470240#5 225470240#4 225470240#3 225470240#2 225470240#1 225470240#0 225470250#1 -225470252#5 372707393 372396764#3 -920874877#4 -920874877#3 -920874877#2 -920874877#1 -920874877#0"/>
    </person>
    <person id="ped102" type="ped_pedestrian" depart="897.44">
        <walk edges="225466127#1 225466127#2 225466093#1 -335765983#0 -563602666#0 -563602475#0 -335765986#6 -335765986#5 -335765986#4 -335765986#3 -563620277"/>
    </person>
    <person id="ped103" type="ped_pedestrian" depart="906.23">
        <walk edges="225466085 225466110#1 225466110#2 225466110#3 225470243#2 1134398594 225470238 335766013#2 225466099#1 225466096#3 225466129#1 225466129#0 225466090#1 225466088 225466132#1 225466124#2 225486052 -335765983#1"/>
    </person>
    <person id="ped104" type="ped_pedestrian" depart="915.03">
        <walk edges="225446893#3 225446893#2 225446893#1 225466115#3 225470262#0 225470252#3 225470252#4 225470252#5 225470250#2 225470253#0 225470246#0 225470246#1 225470245#2 225470257 225470244#0 778437843#0 778437843#1 778437842#2 778437842#1 180244632#1 180244632#2 180244632#3 180244632#4 837196483 837196484 837196485#0"/>
    </person>
    <person id="ped106" type="ped_pedestrian" depart="932.63">
        <walk edges="225466115#0 225466115#1 225466115#2 225466115#3 225446896#1 225446896#0 346382722#1 225486056 335765998 335765996 1134398608#1 225466137#2 225466134 1134398607 225466097#4 1134398604 225485325#0 225466100#2 225466100#1 225466100#0"/>
    </person>
    <person id="ped113" type="ped_pedestrian" depart="994.22">
        <walk edges="225466137#2 225466137#3 225466137#4 1134398595#1 225470267#1 225470267#0 225470243#0 225470240#3 225470240#2 225470240#1 225470240#0 225470250#1 225470252#6 586096395 -563602568#0 563602569#2"/>
    </person>
    <person id="ped118" type="ped_pedestrian" depart="1038.21">
        <walk edges="563616189#0 -561883400 -561883410#0 287145656#3 287145656#4 551576182 656443275 656443273 656443274#0 656443274#1 656443274#2 656443274#3 656443274#4 656443274#5 656443274#6 586077896#0 586077896#1 586077896#3 1339425865#0 1339425865#1 540665092#0 540665092#1 540665092#2 540665092#3 540665092#4 -540665092#4 -540665092#3 -540665092#2 -540665092#1 -540665092#0 -1339425865#1 -1339425865#0 -586077896#3 -586077896#1 -586077896#0 -656443274#6 -656443274#5 -656443274#4 -656443274#3 -656443274#2 -656443274#1 -656443274#0 -656443273 -656443275 563620363 656443276 -563620362"/>
    </person>
    <person id="ped119" type="ped_pedestrian" depart="1047.01">
        <walk edges="225476493#1 225476493#0 225571226 225466111#2 225466111#3 372765901#0 372765901#1 372765901#2 225485361#5 225485361#4 225485361#3 225485361#2 225485361#1 225485361#0 225485338#0"/>
    </person>
    <person id="ped124" type="ped_pedestrian" depart="1091.00">
        <walk edges="225571731 225470240#2 225470240#3 225470243#0 225470267#0 225470267#1 1134398595#1 225466137#4 225466137#3 225466137#2 225466137#1 225466103 225466097#2 225485350#1 225485350#0 225485361#2 225485342 225485347#1 225485330#1 225485346#2 -183191792#5 -183191792#4 -563602657 -543914346#2 1050574279#6"/>
    </person>
    <person id="ped126" type="ped_pedestrian" depart="1108.60">
        <walk edges="-372396764#3 -372396764#0 -225470252#4 -225470252#3 225470262#0 225466115#3"/>
    </person>
    <person id="ped127" type="ped_pedestrian" depart="1117.40">
        <walk edges="920874877#4 -920874877#3 -920874877#2 920874877#1"/>
    </person>
    <person id="ped128" type="ped_pedestrian" depart="1126.19">
        <walk edges="-372396764#4 -372396764#3 -372396764#0 -225470252#4 -225470252#3 225470262#0 225466115#3 225446893#0 585995063#4 585995063#3 585995063#2 585995064#0 225485334 225446891#3 335766015#2 -335765986#6 -335765986#5 -335765986#4 -563620274"/>
    </person>
    <person id="ped129" type="ped_pedestrian" depart="1134.99">
        <walk edges="-656443274#6 -656443274#5 -656443274#4 -656443274#3 -656443274#2 -656443274#1 -656443274#0 563620366"/>
    </person>
    <person id="ped130" type="ped_pedestrian" depart="1143.79">
        <walk edges="563602675#0 563602673"/>
    </person>
    <person id="ped133" type="ped_pedestrian" depart="1170.19">
        <walk edges="225485333#0 225466117#0 225466102#7 225466102#4 225466118#0 225466118#1 225466128#3 225470244#4 225470244#3 225470244#2 778437844#0 778437844#1 778437842#1 180244632#1 180244632#2 180244632#3 563602543 837196485#2"/>
    </person>
    <person id="ped136" type="ped_pedestrian" depart="1196.58">
        <walk edges="225571230 225470236#4 225470236#3 225470236#2 225470236#1 225470236#0 225470265#1 225470265#2 1050574261#0 1050574261#1 225470274#2 225470274#1 1050574260#0 372396764#3 372396764#4 372396764#5 372396764#6 563616187#2 563616188#1 563616188#2 563616188#3 563616188#4 565245611#1"/>
    </person>
    <person id="ped137" type="ped_pedestrian" depart="1205.38">
        <walk edges="-561883405 -561883400 -561883410#0 287145656#3 287145656#4 551576182 656443275 656443273 656443274#0 656443274#1 656443274#2 656443274#3 656443274#4 656443274#5 656443274#6 586077896#0 586077896#1 586077896#3 1339425865#0 1339425865#1 540665092#0 540665092#1 540665092#2 540665092#3 540665092#4 -540665092#4"/>
    </person>
    <person id="ped138" type="ped_pedestrian" depart="1214.18">
        <walk edges="-440267648#0 440267648#1 -837196485#3 837196488 -180244632#2 -180244632#1 778437842#1 778437842#2 778437843#1 778437843#0 225470244#0 225470257 225470245#2 225470246#1 225470246#0 225470253#0 225470250#2 225470250#1 225470250#0 225470262#2"/>
    </person>
    <person id="ped139" type="ped_pedestrian" depart="1222.98">
        <walk edges="-837196485#3 837196488 -180244632#2 -180244632#1 778437842#1 778437844#1 778437844#0 225470244#2 225470244#3 225470244#4 225466128#3 225466118#1 225466118#0 225466102#4 225466102#3 225466100#5 225466100#4 225466100#3 225466100#2 225485325#2"/>
    </person>
    <person id="ped140" type="ped_pedestrian" depart="1231.78">
        <walk edges="346382722#1 225470240#5 225470240#4 225470240#3 225470240#2 225470240#1 225470240#0 225470250#1 -225470252#5 372707393 372396764#3 372396764#4 372396764#5 372396764#6 563616187#2 563616188#1 563616188#2 -563616188#3"/>
    </person>
    <person id="ped147" type="ped_pedestrian" depart="1293.36">
        <walk edges="372765901#5 372765901#4 225485339#0 225485346#0 225485330#0 225485347#1 225485342 225485361#2 225485350#0 225485350#1 225466097#2 225466103 225466137#1 225466137#2 1134398608#1 335765996 335765998 225486056 346382722#1 225446896#0 225446896#1 225466115#3 225470262#0"/>
    </person>
    <person id="ped149" type="ped_pedestrian" depart="1310.96">
        <walk edges="-372398472 -563616188#3 -563616188#2 -563616188#1 -563616188#0 -372396764#6 -372396764#5 -372396764#4 -372396764#3 -372396764#0 -225470252#4 -225470252#3 225470262#0 225466115#3 225446893#1 225446893#2 225466124#10 225466124#9 225466124#8 225466124#7 225466124#6 225466124#5 225466124#4 225466124#3 225466124#2 225466111#0 225466111#1 -563602686#0 563602688"/>
    </person>
    <person id="ped152" type="ped_pedestrian" depart="1337.36">
        <walk edges="-563602473 440267648#0 440267648#1 -837196485#3 837196488 -180244632#2 -180244632#1 778437842#1 778437844#1 778437844#0 225470244#2 225470244#3 225470244#4 225466128#3 225466118#1 225466118#0 225466102#5 543821136#0 563602651#1 -543921248#2 -543921250"/>
    </person>
    <person id="ped153" type="ped_pedestrian" depart="1346.15">
        <walk edges="1134398599 225466081#2 225466081#3 225569131 1134398600#1 1134398600#2 1134398602 1134398601#1 225470243#2 1134398594 225470238 225466080#0 225466080#1 225466080#2 225466105#1 225466105#2 225466083#1 225466094#3 225466094#2 225466122 225466124#8 -563602478 -563602666#0 -563602475#0 -335765986#6 -335765986#5 -335765986#4 -563620274 563620276"/>
    </person>
    <person id="ped155" type="ped_pedestrian" depart="1363.75">
        <walk edges="563620276 335765986#4 335765986#5 335765986#6 -563620267"/>
    </person>
    <person id="ped158" type="ped_pedestrian" depart="1390.15">
        <walk edges="225466093#0 225466121#0 225466124#4 225466109 225466132#0 225485348 225485353#2 225485353#3 372765901#0 372765901#1 372765901#2 372765901#3 225485339#0"/>
    </person>
    <person id="ped165" type="ped_pedestrian" depart="1451.73">
        <walk edges="561883408#1 -561883408#0 -563616189#0 -561883400 -561883410#0 287145656#3 287145656#4 551576182 656443275 656443273 656443274#0 656443274#1 656443274#2 656443274#3 656443274#4 656443274#5 656443274#6 586077896#0 586077896#1 586077896#3 1339425865#0 1339425865#1 540665092#0 540665092#1 540665092#2 540665092#3 540665092#4 -540665092#4 -540665092#3 -540665092#2 -540665092#1 -540665092#0 -1339425865#1 -1339425865#0 -586077896#3 -586077896#1 -586077896#0 -656443274#6 -656443274#5 -656443274#4 -656443274#3 -656443274#2 -656443274#1 -656443274#0 -656443273 -656443275"/>
    </person>
    <person id="ped166" type="ped_pedestrian" depart="1460.53">
        <walk edges="543821136#2 543821136#1 543821136#0 225466102#5 225466118#0 225466118#1 225466128#3 225470244#4 225470244#3 225470244#2 778437844#0 778437844#1 778437842#1 180244632#1 563602548 837196490 837196485#3 -440267648#1"/>
    </person>
    <person id="ped167" type="ped_pedestrian" depart="1469.33">
        <walk edges="563602651#1 543821136#0 225466102#5 225466118#0 225466118#1 225466128#2 225466079 225446899#1 225446899#2 225470357#1 225470357#2 778437849 225470234#1 225470234#0 225470233#0 225485336#4 225470276 225470237 225470236#0 225470236#1 225470236#2 225486058 372396765#1 563602575#0 563602575#1 563602575#2"/>
    </person>
    <person id="ped168" type="ped_pedestrian" depart="1478.13">
        <walk edges="-563620298 563620297 -561883410#0 561883410#0"/>
    </person>
    <person id="ped169" type="ped_pedestrian" depart="1486.93">
        <walk edges="225466117#1 225485340#0 1134398596#0"/>
    </person>
    <person id="ped174" type="ped_pedestrian" depart="1530.92">
        <walk edges="225485360#0 225485360#1 225470359#2 225571731 225470240#2 225470240#3 225470240#4 225470240#5 346382722#1 346382722#0 225466105#0 225466105#1 225466105#2 225466083#1"/>
    </person>
    <person id="ped175" type="ped_pedestrian" depart="1539.72">
        <walk edges="778437849 225470234#1 225470234#0 225470245#1 225470245#2"/>
    </person>
    <person id="ped178" type="ped_pedestrian" depart="1566.11">
        <walk edges="656443273 656443274#0 656443274#1 656443274#2 656443274#3 656443274#4 656443274#5 656443274#6 586077896#0 586077896#1 586077896#3 1339425865#0 1339425865#1 540665092#0 540665092#1 540665092#2 540665092#3 540665092#4 -540665092#4 -540665092#3 -540665092#2 -540665092#1 -540665092#0 -1339425865#1 -1339425865#0 -586077896#3 -586077896#1 -586077896#0 -656443274#6"/>
    </person>
    <person id="ped179" type="ped_pedestrian" depart="1574.91">
        <walk edges="-440267648#1 -837196485#3 837196488 -180244632#2 -180244632#1 778437842#1 778437844#1 778437844#0 225470244#2 225470244#3 225470244#4 225466128#3 225466128#2 225466079 225446899#0 225569126 1134398600#4 1134398600#3 225446900#0 225466108 225466098#1 1134398607 225466134 225466137#1 225466103"/>
    </person>
    <person id="ped180" type="ped_pedestrian" depart="1583.71">
        <walk edges="372396765#1 225486058 225470236#2 225470236#1 225470236#0 225470237 225470276 225485336#4 225470233#0 225470234#0 225470234#1 778437849 225470357#2 778437847 225485323#0 225485323#1 225470359#0 225466110#0 225466110#1 225466110#2 225466110#3 1134398601#1"/>
    </person>
    <person id="ped181" type="ped_pedestrian" depart="1592.51">
        <walk edges="225485327#0 225485327#1 225485350#2 225466097#2 225466097#3 225466097#4 225466098#1 225466108 225466110#4 225466110#3 225466110#2 225466110#1 225466110#0 225470359#0 225485323#1 225485323#0 778437847 225470357#2 778437849 225470234#1 225470234#0 225470233#0 225485336#4 225470276 225470237 225470236#0"/>
    </person>
    <person id="ped182" type="ped_pedestrian" depart="1601.31">
        <walk edges="225446900#1 225466110#4 225466110#3 225466110#2 225466110#1 225466110#0 225470359#0 225470359#1"/>
    </person>
    <person id="ped186" type="ped_pedestrian" depart="1636.50">
        <walk edges="413506553#0 225572146 225446890 225446896#0 225470240#5 225470240#4 225470240#3 225470240#2 225470240#1 225571730"/>
    </person>
    <person id="ped187" type="ped_pedestrian" depart="1645.30">
        <walk edges="183191792#1 183191792#2 183191792#3 183191792#4 183191792#5 225485346#2 225485330#1 225485347#2 225485361#0 225485338#0 517434099 225466100#1 225466100#2 225466100#3 225466100#4 225466100#5 225466102#3 225466102#4 225466118#0 225466118#1 225466128#3 225470244#4 225470244#3 225470244#2 778437844#0 778437844#1 778437842#1 180244632#1 563602548 837196490 837196485#3 440267648#2 -372376369#0"/>
    </person>
    <person id="ped189" type="ped_pedestrian" depart="1662.90">
        <walk edges="1134398601#1 1134398601#2 1134398600#4 225569126 225446899#0 225466079 225466128#2 225466128#3 225470244#4 225470244#3 225470244#2 778437844#0 778437844#1 778437842#1 180244632#1 180244632#2 180244632#3 563602541"/>
    </person>
    <person id="ped191" type="ped_pedestrian" depart="1680.49">
        <walk edges="1134398600#0 1134398600#4 1134398601#2 1134398601#1 225470243#2 1134398594 225470238 225466080#0 225466080#1 225466080#2 225466105#1 225466105#2 225466083#1 225466083#2 225466124#6 225466121#1 225466093#0 225466093#1 225466093#2"/>
    </person>
    <person id="ped192" type="ped_pedestrian" depart="1689.29">
        <walk edges="225466087 225466112#2 585995064#1 585995064#0 585995063#1 585995063#6 225446901 225571223 413506553#1 225466105#0 225466080#2 225466120#0 225466120#1 225466096#1 1050574263 1050574262#1 225466123#2 225466135#1 225466135#0 225466097#0 225466097#1 225485350#1 225485350#0 225485361#2 225485342 225485347#1 225485330#1 225485346#2 -183191792#5 -183191792#4 -183191792#3 563602658 1050574279#4 1050574279#3 1050574279#2 1050574279#1"/>
    </person>
    <person id="ped193" type="ped_pedestrian" depart="1698.09">
        <walk edges="-543921250 543921248#2 563602651#1 543821136#0 225466102#6 225466117#0 225485362#0 225485362#1 225466102#1 225446903#1 225446903#0 1134398600#1 1134398600#2 225446900#0 225466108 225466098#1"/>
    </person>
    <person id="ped195" type="ped_pedestrian" depart="1715.69">
        <walk edges="563620281#2 563620276 335765986#4 335765986#5 335765986#6 335766015#2 225446891#3 225485334 585995064#0 585995063#2 585995063#3 585995063#4 225446893#0 225466115#3 225470262#0 225470252#3 225470252#4 225470252#5 225470250#2 225470253#0 225470242#0 225485336#3 225485336#4 225485336#1"/>
    </person>
    <person id="ped199" type="ped_pedestrian" depart="1750.88">
        <walk edges="225486062 225470244#0 225470244#1 225470244#2 225470244#3 225470244#4 225466128#3 225466118#1"/>
    </person>
    <person id="ped200" type="ped_pedestrian" depart="1759.68">
        <walk edges="225466109 225466124#4 225466124#5 225466124#6 225466124#7 225466124#8 -563602478 -563602666#0 -563602475#0 -335765986#6 -335765986#5 -335765986#4 -335765986#3 -563620277"/>
    </person>