<?xml version="1.0" encoding="UTF-8"?>

<!-- generated on 2025-03-03 18:44:04.190469 by osmWebWizard.py v1_21_0+0000-d7b3b481c43
<configuration>
    <net-file value="C:\Users\evans\Sumo\2025-03-03-18-43-58\osm.net.xml.gz"/>
    <output-trip-file value="C:\Users\evans\Sumo\2025-03-03-18-43-58\osm.bicycle.trips.xml"/>
    <route-file value="C:\Users\evans\Sumo\2025-03-03-18-43-58\osm.bicycle.rou.xml"/>
    <prefix value="bike"/>
    <trip-attributes value="departLane=&quot;best&quot;"/>
    <fringe-start-attributes value="departSpeed=&quot;max&quot;"/>
    <vehicle-class value="bicycle"/>
    <fringe-factor value="2"/>
    <vclass value="bicycle"/>
    <via-edge-types value="highway.motorway,highway.motorway_link,highway.trunk_link,highway.primary_link,highway.secondary_link,highway.tertiary_link"/>
    <max-distance value="8000.0"/>
    <remove-loops value="True"/>
    <validate value="True"/>
    <end value="86400.0"/>
    <insertion-density value="6.0"/>
</configuration>
-->

<!-- generated on 2025-03-03 18:44:03 by Eclipse SUMO duarouter Version 1.21.0
<duarouterConfiguration xmlns:xsi="http://www.w3.org/2001/XMLSchema-instance" xsi:noNamespaceSchemaLocation="http://sumo.dlr.de/xsd/duarouterConfiguration.xsd">

    <input>
        <net-file value="C:\Users\evans\Sumo\2025-03-03-18-43-58\osm.net.xml.gz"/>
        <route-files value="C:\Users\evans\Sumo\2025-03-03-18-43-58\osm.bicycle.trips.xml"/>
    </input>

    <output>
        <output-file value="C:\Users\evans\Sumo\2025-03-03-18-43-58\osm.bicycle.trips.xml.tmp"/>
        <alternatives-output value="NUL"/>
        <write-trips value="true"/>
    </output>

    <processing>
        <remove-loops value="true"/>
    </processing>

    <time>
        <begin value="0.0"/>
        <end value="86400.0"/>
    </time>

    <report>
        <no-warnings value="true"/>
        <ignore-errors value="true"/>
        <no-step-log value="true"/>
    </report>

</duarouterConfiguration>
-->

<routes xmlns:xsi="http://www.w3.org/2001/XMLSchema-instance" xsi:noNamespaceSchemaLocation="http://sumo.dlr.de/xsd/routes_file.xsd">
    <vType id="bike_bicycle" vClass="bicycle"/>
    <trip id="bike0" type="bike_bicycle" depart="0.00" departLane="best" from="415361890#1" to="180244632#1"/>
    <trip id="bike2" type="bike_bicycle" depart="24.67" departLane="best" from="561883410#0" to="561883401"/>
    <trip id="bike3" type="bike_bicycle" depart="37.00" departLane="best" departSpeed="max" from="585994314" to="-291937087"/>
    <trip id="bike4" type="bike_bicycle" depart="49.33" departLane="best" departSpeed="max" from="-585994313" to="-180244636#1"/>
    <trip id="bike10" type="bike_bicycle" depart="123.33" departLane="best" from="563616166#1" to="563602502"/>
    <trip id="bike12" type="bike_bicycle" depart="148.00" departLane="best" from="837196488" to="-586077896#0"/>
    <trip id="bike13" type="bike_bicycle" depart="160.33" departLane="best" from="-291937082#1" to="-335766023#0"/>
    <trip id="bike15" type="bike_bicycle" depart="185.00" departLane="best" from="563616167#0" to="563602575#1"/>
    <trip id="bike16" type="bike_bicycle" depart="197.33" departLane="best" from="-180244632#4" to="9137054#1"/>
    <trip id="bike17" type="bike_bicycle" depart="209.66" departLane="best" departSpeed="max" from="-563620332" to="353960848"/>
    <trip id="bike18" type="bike_bicycle" depart="222.00" departLane="best" from="-335766023#0" to="-540665092#1"/>
    <trip id="bike19" type="bike_bicycle" depart="234.33" departLane="best" from="563620379" to="415361889#0"/>
    <trip id="bike20" type="bike_bicycle" depart="246.66" departLane="best" from="543914349#0" to="-585997480"/>
    <trip id="bike21" type="bike_bicycle" depart="259.00" departLane="best" from="561883409#4" to="563620281#1"/>
    <trip id="bike22" type="bike_bicycle" depart="271.33" departLane="best" from="276157215#0" to="-563602522#0"/>
    <trip id="bike24" type="bike_bicycle" depart="296.00" departLane="best" from="-415361889#1" to="-656443274#2"/>
    <trip id="bike25" type="bike_bicycle" depart="308.33" departLane="best" from="-563620314" to="-561883409#0"/>
    <trip id="bike26" type="bike_bicycle" depart="320.66" departLane="best" departSpeed="max" from="-563602565" to="631611869#0"/>
    <trip id="bike28" type="bike_bicycle" depart="345.33" departLane="best" from="540665092#1" to="563602575#1"/>
    <trip id="bike29" type="bike_bicycle" depart="357.66" departLane="best" from="-440267648#2" to="-837196485#0"/>
    <trip id="bike30" type="bike_bicycle" depart="369.99" departLane="best" from="-9152018#0" to="-543921248#2"/>
    <trip id="bike31" type="bike_bicycle" depart="382.33" departLane="best" from="183191745#1" to="563602462#1"/>
    <trip id="bike32" type="bike_bicycle" depart="394.66" departLane="best" from="-563620320#1" to="563602658"/>
    <trip id="bike33" type="bike_bicycle" depart="406.99" departLane="best" from="561883409#5" to="-180244636#5"/>
    <trip id="bike34" type="bike_bicycle" depart="419.33" departLane="best" from="-563602666#0" to="-563616167#0"/>
    <trip id="bike36" type="bike_bicycle" depart="443.99" departLane="best" from="565255792#2" to="563620363"/>
    <trip id="bike37" type="bike_bicycle" depart="456.33" departLane="best" departSpeed="max" from="424200906" to="-9124791#1"/>
    <trip id="bike38" type="bike_bicycle" depart="468.66" departLane="best" from="-586413246#18" to="-180244636#0"/>
    <trip id="bike40" type="bike_bicycle" depart="493.33" departLane="best" from="183191792#2" to="372746863"/>
    <trip id="bike41" type="bike_bicycle" depart="505.66" departLane="best" from="-276157215#8" to="586002129"/>
    <trip id="bike42" type="bike_bicycle" depart="517.99" departLane="best" from="-563620364" to="563602478"/>
    <trip id="bike44" type="bike_bicycle" depart="542.66" departLane="best" from="287145656#4" to="-183191792#0"/>
    <trip id="bike45" type="bike_bicycle" depart="554.99" departLane="best" from="-335765986#5" to="540665092#9"/>
    <trip id="bike46" type="bike_bicycle" depart="567.32" departLane="best" from="-563602650#0" to="-920874877#4"/>
    <trip id="bike47" type="bike_bicycle" depart="579.66" departLane="best" from="-225477832#1" to="-837196485#2"/>
    <trip id="bike48" type="bike_bicycle" depart="591.99" departLane="best" from="920874877#3" to="-291937083#1"/>
    <trip id="bike49" type="bike_bicycle" depart="604.32" departLane="best" from="9124791#1" to="563620376"/>
    <trip id="bike50" type="bike_bicycle" depart="616.66" departLane="best" from="-180244652#2" to="563602560#1"/>
    <trip id="bike51" type="bike_bicycle" depart="628.99" departLane="best" from="531094133#1" to="335765983#1"/>
    <trip id="bike52" type="bike_bicycle" depart="641.32" departLane="best" departSpeed="max" from="-563602565" to="-551576182"/>
    <trip id="bike54" type="bike_bicycle" depart="665.99" departLane="best" from="-656443274#0" to="-828146450#0"/>
    <trip id="bike55" type="bike_bicycle" depart="678.32" departLane="best" from="565255792#1" to="-586413246#15"/>
    <trip id="bike56" type="bike_bicycle" depart="690.66" departLane="best" departSpeed="max" from="-9152018#3" to="543914345"/>
    <trip id="bike57" type="bike_bicycle" depart="702.99" departLane="best" from="586413246#16" to="563620401"/>
    <trip id="bike58" type="bike_bicycle" depart="715.32" departLane="best" from="-563602631" to="-543921248#1"/>
    <trip id="bike59" type="bike_bicycle" depart="727.65" departLane="best" from="-335765986#6" to="-440267648#0"/>
    <trip id="bike60" type="bike_bicycle" depart="739.99" departLane="best" from="563602531" to="-335765986#0"/>
    <trip id="bike61" type="bike_bicycle" depart="752.32" departLane="best" from="563602592" to="291937084#0"/>
    <trip id="bike63" type="bike_bicycle" depart="776.99" departLane="best" from="1339425865#0" to="586413259#1"/>
    <trip id="bike64" type="bike_bicycle" depart="789.32" departLane="best" from="565255792#5" to="563620329#1"/>
    <trip id="bike65" type="bike_bicycle" depart="801.65" departLane="best" departSpeed="max" from="-563602648" to="225477832#1"/>
    <trip id="bike66" type="bike_bicycle" depart="813.99" departLane="best" from="586413266#3" to="-656443275"/>
    <trip id="bike67" type="bike_bicycle" depart="826.32" departLane="best" from="-276157215#8" to="183191792#3"/>
    <trip id="bike69" type="bike_bicycle" depart="850.99" departLane="best" from="-563602568#0" to="-415361893#0"/>
    <trip id="bike70" type="bike_bicycle" depart="863.32" departLane="best" from="-778136694#1" to="343541421"/>
    <trip id="bike72" type="bike_bicycle" depart="887.99" departLane="best" from="183191792#6" to="-561883409#3"/>
    <trip id="bike73" type="bike_bicycle" depart="900.32" departLane="best" from="180244636#3" to="563602575#2"/>
    <trip id="bike76" type="bike_bicycle" depart="937.32" departLane="best" from="-586413246#17" to="276157215#6"/>
    <trip id="bike77" type="bike_bicycle" depart="949.65" departLane="best" from="-372396764#3" to="-563602500"/>
    <trip id="bike79" type="bike_bicycle" depart="974.32" departLane="best" from="561883409#6" to="-563602486"/>
    <trip id="bike81" type="bike_bicycle" depart="998.98" departLane="best" from="561883409#5" to="586077896#1"/>
    <trip id="bike82" type="bike_bicycle" depart="1011.32" departLane="best" from="563620378#0" to="276157215#4"/>
    <trip id="bike83" type="bike_bicycle" depart="1023.65" departLane="best" departSpeed="max" from="-563602473" to="561883405"/>
    <trip id="bike85" type="bike_bicycle" depart="1048.32" departLane="best" from="656443274#0" to="372725969"/>
    <trip id="bike88" type="bike_bicycle" depart="1085.32" departLane="best" from="-291937084#0" to="1121887300"/>
    <trip id="bike89" type="bike_bicycle" depart="1097.65" departLane="best" from="-585997479" to="-180244637#1"/>
    <trip id="bike90" type="bike_bicycle" depart="1109.98" departLane="best" from="561883404" to="561883408#1"/>
    <trip id="bike93" type="bike_bicycle" depart="1146.98" departLane="best" from="563620379" to="-563602630"/>
    <trip id="bike94" type="bike_bicycle" depart="1159.31" departLane="best" from="-543921248#1" to="1363617808"/>
    <trip id="bike95" type="bike_bicycle" depart="1171.65" departLane="best" departSpeed="max" from="-585994313" to="-563620263#0"/>
    <trip id="bike96" type="bike_bicycle" depart="1183.98" departLane="best" from="563602507#1" to="586413246#6"/>
    <trip id="bike97" type="bike_bicycle" depart="1196.31" departLane="best" from="586413246#5" to="563620378#0"/>
    <trip id="bike98" type="bike_bicycle" depart="1208.65" departLane="best" from="-180244639#1" to="183191792#3"/>
    <trip id="bike99" type="bike_bicycle" depart="1220.98" departLane="best" from="928756320#1" to="563620335"/>
    <trip id="bike101" type="bike_bicycle" depart="1245.65" departLane="best" from="563620344" to="540665092#11"/>
    <trip id="bike102" type="bike_bicycle" depart="1257.98" departLane="best" from="-9142394#0" to="-561883409#5"/>
    <trip id="bike104" type="bike_bicycle" depart="1282.65" departLane="best" departSpeed="max" from="-563620332" to="9151585#2"/>
    <trip id="bike105" type="bike_bicycle" depart="1294.98" departLane="best" departSpeed="max" from="-563602559" to="563602688"/>
    <trip id="bike106" type="bike_bicycle" depart="1307.31" departLane="best" from="656443274#2" to="-928756320#0"/>
    <trip id="bike107" type="bike_bicycle" depart="1319.65" departLane="best" from="837196488" to="920874877#0"/>
    <trip id="bike108" type="bike_bicycle" depart="1331.98" departLane="best" from="180244661#2" to="563602543"/>
    <trip id="bike109" type="bike_bicycle" depart="1344.31" departLane="best" departSpeed="max" from="-425380524" to="-563620298"/>
    <trip id="bike112" type="bike_bicycle" depart="1381.31" departLane="best" from="-183191792#5" to="415361892#1"/>
    <trip id="bike114" type="bike_bicycle" depart="1405.98" departLane="best" from="656443274#5" to="837196486"/>
    <trip id="bike115" type="bike_bicycle" depart="1418.31" departLane="best" from="-276157215#0" to="-543921250"/>
    <trip id="bike116" type="bike_bicycle" depart="1430.64" departLane="best" from="291937083#1" to="561883409#1"/>
    <trip id="bike117" type="bike_bicycle" depart="1442.98" departLane="best" departSpeed="max" from="-563602467" to="415361889#1"/>
    <trip id="bike119" type="bike_bicycle" depart="1467.64" departLane="best" from="291937083#0" to="540665092#10"/>
    <trip id="bike120" type="bike_bicycle" depart="1479.98" departLane="best" from="563620352#1" to="415361891#1"/>
    <trip id="bike121" type="bike_bicycle" depart="1492.31" departLane="best" from="1339425865#0" to="565255792#4"/>
    <trip id="bike123" type="bike_bicycle" depart="1516.98" departLane="best" from="-563602475#0" to="-9124791#1"/>
    <trip id="bike124" type="bike_bicycle" depart="1529.31" departLane="best" from="440267648#0" to="563620312"/>
    <trip id="bike127" type="bike_bicycle" depart="1566.31" departLane="best" departSpeed="max" from="928756320#0" to="-920874877#1"/>
    <trip id="bike129" type="bike_bicycle" depart="1590.97" departLane="best" departSpeed="max" from="-563602559" to="565255792#6"/>
    <trip id="bike130" type="bike_bicycle" depart="1603.31" departLane="best" from="565255792#7" to="565245613"/>
    <trip id="bike132" type="bike_bicycle" depart="1627.97" departLane="best" departSpeed="max" from="563620294" to="563602514"/>
    <trip id="bike134" type="bike_bicycle" depart="1652.64" departLane="best" departSpeed="max" from="424200906" to="-1177178154"/>
    <trip id="bike135" type="bike_bicycle" depart="1664.97" departLane="best" from="563616189#1" to="563620311#0"/>
    <trip id="bike136" type="bike_bicycle" depart="1677.31" departLane="best" departSpeed="max" from="425379567" to="-631653305#2"/>
    <trip id="bike137" type="bike_bicycle" depart="1689.64" departLane="best" from="-415361889#1" to="-415361885"/>
    <trip id="bike138" type="bike_bicycle" depart="1701.97" departLane="best" from="-335765986#2" to="353960848"/>
    <trip id="bike139" type="bike_bicycle" depart="1714.31" departLane="best" departSpeed="max" from="-563602568#1" to="425380532"/>
    <trip id="bike141" type="bike_bicycle" depart="1738.97" departLane="best" from="415361888" to="-563602683#0"/>
    <trip id="bike142" type="bike_bicycle" depart="1751.30" departLane="best" from="-9142394#3" to="-586077896#1"/>
    <trip id="bike143" type="bike_bicycle" depart="1763.64" departLane="best" from="-563620330#0" to="-335765986#2"/>
    <trip id="bike144" type="bike_bicycle" depart="1775.97" departLane="best" from="183191792#6" to="-563616193#0"/>
    <trip id="bike145" type="bike_bicycle" depart="1788.30" departLane="best" from="-1046388838#0" to="563602651#1"/>
    <trip id="bike146" type="bike_bicycle" depart="1800.64" departLane="best" departSpeed="max" from="415361890#0" to="-563602667"/>
    <trip id="bike147" type="bike_bicycle" depart="1812.97" departLane="best" from="563602459" to="353960847"/>
    <trip id="bike148" type="bike_bicycle" depart="1825.30" departLane="best" from="-586080833" to="-1181098155"/>
    <trip id="bike150" type="bike_bicycle" depart="1849.97" departLane="best" from="-180244626#0" to="-563602475#0"/>
    <trip id="bike151" type="bike_bicycle" depart="1862.30" departLane="best" departSpeed="max" from="563620294" to="415361891#0"/>
    <trip id="bike152" type="bike_bicycle" depart="1874.64" departLane="best" from="-425379241#0" to="-415361892#1"/>
    <trip id="bike153" type="bike_bicycle" depart="1886.97" departLane="best" departSpeed="max" from="-563602648" to="586002130#0"/>
    <trip id="bike154" type="bike_bicycle" depart="1899.30" departLane="best" from="-543914346#0" to="563620376"/>
    <trip id="bike155" type="bike_bicycle" depart="1911.64" departLane="best" from="586002131#1" to="-561883409#1"/>
    <trip id="bike156" type="bike_bicycle" depart="1923.97" departLane="best" from="563602520" to="-372376369#1"/>
    <trip id="bike158" type="bike_bicycle" depart="1948.63" departLane="best" departSpeed="max" from="-563620392#1" to="540665092#2"/>
    <trip id="bike159" type="bike_bicycle" depart="1960.97" departLane="best" departSpeed="max" from="-425380524" to="586413259#2"/>
    <trip id="bike161" type="bike_bicycle" depart="1985.63" departLane="best" from="-563616187#1" to="565255792#1"/>
    <trip id="bike163" type="bike_bicycle" depart="2010.30" departLane="best" from="563616167#1" to="565255792#0"/>
    <trip id="bike164" type="bike_bicycle" depart="2022.63" departLane="best" from="563602689" to="563620380"/>
    <trip id="bike165" type="bike_bicycle" depart="2034.97" departLane="best" from="-563616187#1" to="-563616166#0"/>
    <trip id="bike166" type="bike_bicycle" depart="2047.30" departLane="best" from="563602644" to="-372398472"/>
    <trip id="bike168" type="bike_bicycle" depart="2071.97" departLane="best" departSpeed="max" from="-561883408#1" to="563620287#0"/>
    <trip id="bike169" type="bike_bicycle" depart="2084.30" departLane="best" from="656443275" to="-563620322"/>
    <trip id="bike170" type="bike_bicycle" depart="2096.63" departLane="best" from="-563602655" to="-563602507#1"/>
    <trip id="bike172" type="bike_bicycle" depart="2121.30" departLane="best" departSpeed="max" from="-563616162" to="563620380"/>
    <trip id="bike173" type="bike_bicycle" depart="2133.63" departLane="best" from="9121991" to="-563620262"/>
    <trip id="bike174" type="bike_bicycle" depart="2145.97" departLane="best" from="415361891#0" to="-9137054#1"/>
    <trip id="bike175" type="bike_bicycle" depart="2158.30" departLane="best" from="-9142394#2" to="291937088"/>
    <trip id="bike176" type="bike_bicycle" depart="2170.63" departLane="best" from="656443274#4" to="-415361885"/>
    <trip id="bike177" type="bike_bicycle" depart="2182.96" departLane="best" from="9124791#0" to="543914345"/>
    <trip id="bike179" type="bike_bicycle" depart="2207.63" departLane="best" from="-335765986#4" to="1177178154"/>
    <trip id="bike180" type="bike_bicycle" depart="2219.96" departLane="best" from="561883403" to="563620360"/>
    <trip id="bike182" type="bike_bicycle" depart="2244.63" departLane="best" departSpeed="max" from="-563620346" to="415361888"/>
    <trip id="bike183" type="bike_bicycle" depart="2256.96" departLane="best" from="-563602522#0" to="-563602524"/>
    <trip id="bike184" type="bike_bicycle" depart="2269.30" departLane="best" from="-1046388837#0" to="586413249#1"/>
    <trip id="bike185" type="bike_bicycle" depart="2281.63" departLane="best" from="180244636#1" to="563602548"/>
    <trip id="bike186" type="bike_bicycle" depart="2293.96" departLane="best" from="563602475#1" to="561883407"/>
    <trip id="bike187" type="bike_bicycle" depart="2306.30" departLane="best" from="-563620311#0" to="9152018#0"/>
    <trip id="bike188" type="bike_bicycle" depart="2318.63" departLane="best" departSpeed="max" from="425379567" to="-568382083#2"/>
    <trip id="bike189" type="bike_bicycle" depart="2330.96" departLane="best" from="183191792#4" to="563620356"/>
    <trip id="bike191" type="bike_bicycle" depart="2355.63" departLane="best" from="-563602650#0" to="9151585#0"/>
    <trip id="bike193" type="bike_bicycle" depart="2380.29" departLane="best" from="-372715931#0" to="-920874877#3"/>
    <trip id="bike194" type="bike_bicycle" depart="2392.63" departLane="best" from="656443274#6" to="561883401"/>
    <trip id="bike195" type="bike_bicycle" depart="2404.96" departLane="best" from="-586080833" to="531094133#1"/>
    <trip id="bike197" type="bike_bicycle" depart="2429.63" departLane="best" from="-1020412074" to="-563620277"/>
    <trip id="bike198" type="bike_bicycle" depart="2441.96" departLane="best" from="586080836#1" to="-415361890#1"/>
    <trip id="bike199" type="bike_bicycle" depart="2454.29" departLane="best" departSpeed="max" from="424200906" to="-180244636#8"/>
    <trip id="bike200" type="bike_bicycle" depart="2466.63" departLane="best" from="586413246#4" to="-561883409#5"/>
    <trip id="bike201" type="bike_bicycle" depart="2478.96" departLane="best" departSpeed="max" from="-9121329" to="586002130#2"/>
    <trip id="bike202" type="bike_bicycle" depart="2491.29" departLane="best" from="-543914346#0" to="-540665092#4"/>
    <trip id="bike203" type="bike_bicycle" depart="2503.63" departLane="best" from="-276157215#6" to="-276157215#3"/>
    <trip id="bike204" type="bike_bicycle" depart="2515.96" departLane="best" from="415361886#2" to="-585997480"/>
    <trip id="bike206" type="bike_bicycle" depart="2540.63" departLane="best" from="-440267648#2" to="-563602500"/>
    <trip id="bike208" type="bike_bicycle" depart="2565.29" departLane="best" from="-563602496#0" to="180244652#0"/>
    <trip id="bike209" type="bike_bicycle" depart="2577.62" departLane="best" from="563620345#0" to="276157215#6"/>
    <trip id="bike212" type="bike_bicycle" depart="2614.62" departLane="best" from="-9151585#3" to="-563602591"/>
    <trip id="bike213" type="bike_bicycle" depart="2626.96" departLane="best" from="-425377800#0" to="1085025207"/>
    <trip id="bike214" type="bike_bicycle" depart="2639.29" departLane="best" from="563602507#0" to="563602650#1"/>
    <trip id="bike215" type="bike_bicycle" depart="2651.62" departLane="best" from="-335765986#2" to="1046388837#0"/>
    <trip id="bike216" type="bike_bicycle" depart="2663.96" departLane="best" from="-540665092#5" to="-837196485#1"/>
    <trip id="bike217" type="bike_bicycle" depart="2676.29" departLane="best" departSpeed="max" from="1209313234" to="183191792#3"/>
    <trip id="bike218" type="bike_bicycle" depart="2688.62" departLane="best" from="563602520" to="563620356"/>
    <trip id="bike219" type="bike_bicycle" depart="2700.96" departLane="best" from="-656443274#3" to="563616193#1"/>
    <trip id="bike220" type="bike_bicycle" depart="2713.29" departLane="best" from="-425380530" to="9151585#5"/>
    <trip id="bike221" type="bike_bicycle" depart="2725.62" departLane="best" from="291937083#1" to="737722158#0"/>
    <trip id="bike226" type="bike_bicycle" depart="2787.29" departLane="best" from="-778136694#1" to="-563602656"/>
    <trip id="bike227" type="bike_bicycle" depart="2799.62" departLane="best" from="-563602505#0" to="543914349#1"/>
    <trip id="bike229" type="bike_bicycle" depart="2824.29" departLane="best" from="372715929" to="-563616188#3"/>
    <trip id="bike231" type="bike_bicycle" depart="2848.95" departLane="best" departSpeed="max" from="-563602568#1" to="563620401"/>
    <trip id="bike232" type="bike_bicycle" depart="2861.29" departLane="best" from="180244636#4" to="540665092#6"/>
    <trip id="bike233" type="bike_bicycle" depart="2873.62" departLane="best" from="-563602456" to="563602484"/>
    <trip id="bike235" type="bike_bicycle" depart="2898.29" departLane="best" departSpeed="max" from="-563620392#1" to="335765986#4"/>
    <trip id="bike237" type="bike_bicycle" depart="2922.95" departLane="best" from="568382083#3" to="563620330#0"/>
    <trip id="bike238" type="bike_bicycle" depart="2935.29" departLane="best" from="276157215#6" to="-563602489#1"/>
    <trip id="bike240" type="bike_bicycle" depart="2959.95" departLane="best" departSpeed="max" from="-563620334" to="1085025207"/>
    <trip id="bike242" type="bike_bicycle" depart="2984.62" departLane="best" from="-563620358#1" to="778136694#1"/>
    <trip id="bike244" type="bike_bicycle" depart="3009.28" departLane="best" departSpeed="max" from="180244638#0" to="425380529"/>
    <trip id="bike245" type="bike_bicycle" depart="3021.62" departLane="best" departSpeed="max" from="-561883407" to="563602478"/>
    <trip id="bike246" type="bike_bicycle" depart="3033.95" departLane="best" from="-586413246#14" to="-180244636#0"/>
    <trip id="bike247" type="bike_bicycle" depart="3046.28" departLane="best" from="-563616187#1" to="-561883409#6"/>
    <trip id="bike248" type="bike_bicycle" depart="3058.62" departLane="best" departSpeed="max" from="-563620375" to="540665092#1"/>
    <trip id="bike249" type="bike_bicycle" depart="3070.95" departLane="best" departSpeed="max" from="-837196483" to="-415361892#1"/>
    <trip id="bike250" type="bike_bicycle" depart="3083.28" departLane="best" from="-372396764#4" to="180244632#3"/>
    <trip id="bike251" type="bike_bicycle" depart="3095.62" departLane="best" from="-563620358#1" to="372707394"/>
    <trip id="bike253" type="bike_bicycle" depart="3120.28" departLane="best" from="415361890#1" to="-180244636#4"/>
    <trip id="bike254" type="bike_bicycle" depart="3132.62" departLane="best" from="-180244652#3" to="-837196485#0"/>
    <trip id="bike255" type="bike_bicycle" depart="3144.95" departLane="best" from="561881610#5" to="-568370163"/>
    <trip id="bike256" type="bike_bicycle" depart="3157.28" departLane="best" from="563602529" to="-837196485#0"/>
    <trip id="bike257" type="bike_bicycle" depart="3169.62" departLane="best" from="563602514" to="563620329#1"/>
    <trip id="bike258" type="bike_bicycle" depart="3181.95" departLane="best" from="-563602516" to="-291937083#0"/>
    <trip id="bike259" type="bike_bicycle" depart="3194.28" departLane="best" from="1339425865#0" to="335765986#0"/>
    <trip id="bike260" type="bike_bicycle" depart="3206.61" departLane="best" from="928756320#1" to="586413246#17"/>
    <trip id="bike264" type="bike_bicycle" depart="3255.95" departLane="best" from="1339425865#1" to="-440267648#0"/>
    <trip id="bike265" type="bike_bicycle" depart="3268.28" departLane="best" departSpeed="max" from="-372707394" to="561883405"/>
    <trip id="bike266" type="bike_bicycle" depart="3280.61" departLane="best" from="183191792#5" to="-563602475#0"/>
    <trip id="bike267" type="bike_bicycle" depart="3292.95" departLane="best" from="543914346#1" to="563602646"/>
    <trip id="bike269" type="bike_bicycle" depart="3317.61" departLane="best" departSpeed="max" from="563602500" to="-415361884"/>
    <trip id="bike270" type="bike_bicycle" depart="3329.95" departLane="best" from="563620263#0" to="9121329"/>
    <trip id="bike271" type="bike_bicycle" depart="3342.28" departLane="best" from="-335765986#4" to="180244632#1"/>
    <trip id="bike272" type="bike_bicycle" depart="3354.61" departLane="best" from="543914343#2" to="-561883409#4"/>
    <trip id="bike273" type="bike_bicycle" depart="3366.95" departLane="best" from="837196490" to="-9129472"/>
    <trip id="bike275" type="bike_bicycle" depart="3391.61" departLane="best" from="540665092#6" to="540665092#9"/>
    <trip id="bike276" type="bike_bicycle" depart="3403.94" departLane="best" from="-291937088" to="563602653#0"/>
    <trip id="bike277" type="bike_bicycle" depart="3416.28" departLane="best" from="563620345#1" to="425380523"/>
    <trip id="bike278" type="bike_bicycle" depart="3428.61" departLane="best" from="-372396764#3" to="9151585#0"/>
    <trip id="bike279" type="bike_bicycle" depart="3440.94" departLane="best" from="-276157215#8" to="586413246#14"/>
    <trip id="bike280" type="bike_bicycle" depart="3453.28" departLane="best" from="180244626#4" to="-737722158#0"/>
    <trip id="bike281" type="bike_bicycle" depart="3465.61" departLane="best" from="920874877#3" to="-586080836#1"/>
    <trip id="bike282" type="bike_bicycle" depart="3477.94" departLane="best" from="563620345#0" to="563620311#0"/>
    <trip id="bike283" type="bike_bicycle" depart="3490.28" departLane="best" from="-335765986#1" to="837196486"/>
    <trip id="bike284" type="bike_bicycle" depart="3502.61" departLane="best" from="-415361889#1" to="563620320#1"/>
    <trip id="bike285" type="bike_bicycle" depart="3514.94" departLane="best" from="543921250" to="180244652#2"/>
    <trip id="bike286" type="bike_bicycle" depart="3527.28" departLane="best" from="561883409#4" to="9121329"/>
    <trip id="bike287" type="bike_bicycle" depart="3539.61" departLane="best" departSpeed="max" from="-563602567" to="563620270#1"/>
    <trip id="bike288" type="bike_bicycle" depart="3551.94" departLane="best" from="180244636#1" to="183191792#0"/>
    <trip id="bike289" type="bike_bicycle" depart="3564.28" departLane="best" from="-586413246#14" to="563602575#3"/>
    <trip id="bike290" type="bike_bicycle" depart="3576.61" departLane="best" departSpeed="max" from="-563602565" to="563620358#2"/>
    <trip id="bike291" type="bike_bicycle" depart="3588.94" departLane="best" from="563620284" to="-291937087"/>
    <trip id="bike292" type="bike_bicycle" depart="3601.27" departLane="best" from="565255794" to="-563602591"/>
    <trip id="bike294" type="bike_bicycle" depart="3625.94" departLane="best" departSpeed="max" from="-563620332" to="-180244636#0"/>
    <trip id="bike295" type="bike_bicycle" depart="3638.27" departLane="best" from="563620345#1" to="563602652"/>
    <trip id="bike297" type="bike_bicycle" depart="3662.94" departLane="best" from="-563616189#0" to="565255792#0"/>
    <trip id="bike298" type="bike_bicycle" depart="3675.27" departLane="best" from="543914346#3" to="-828146450#0"/>
    <trip id="bike299" type="bike_bicycle" depart="3687.61" departLane="best" departSpeed="max" from="-1134398611" to="656443276"/>
    <trip id="bike300" type="bike_bicycle" depart="3699.94" departLane="best" from="-276157215#6" to="563602560#1"/>
    <trip id="bike301" type="bike_bicycle" depart="3712.27" departLane="best" from="-9142394#3" to="563602635"/>
    <trip id="bike303" type="bike_bicycle" depart="3736.94" departLane="best" departSpeed="max" from="-9142394#5" to="563616187#1"/>
    <trip id="bike304" type="bike_bicycle" depart="3749.27" departLane="best" from="-291937082#2" to="-563602489#1"/>
    <trip id="bike305" type="bike_bicycle" depart="3761.61" departLane="best" from="-540665092#7" to="-563620325#0"/>
    <trip id="bike307" type="bike_bicycle" depart="3786.27" departLane="best" from="180244626#3" to="1046388837#0"/>
    <trip id="bike308" type="bike_bicycle" depart="3798.60" departLane="best" from="563602496#1" to="-568382083#3"/>
    <trip id="bike309" type="bike_bicycle" depart="3810.94" departLane="best" from="543914347" to="563616187#1"/>