<?xml version="1.0" encoding="UTF-8"?>

<!-- generated on 2025-02-25 19:04:11.098469 by osmWebWizard.py v1_21_0+0000-d7b3b481c43
<configuration>
    <net-file value="C:\Users\evans\Sumo\2025-02-25-19-04-05\osm.net.xml.gz"/>
    <additional-files value="C:\Users\evans\Sumo\2025-02-25-19-04-05\osm_stops.add.xml,C:\Users\evans\Sumo\2025-02-25-19-04-05\osm_pt.rou.xml"/>
    <output-trip-file value="C:\Users\evans\Sumo\2025-02-25-19-04-05\osm.pedestrian.trips.xml"/>
    <route-file value="C:\Users\evans\Sumo\2025-02-25-19-04-05\osm.pedestrian.rou.xml"/>
    <persontrips value="True"/>
    <persontrip.walk-opposite-factor value="0.8"/>
    <prefix value="ped"/>
    <trip-attributes value="modes=&quot;public&quot;"/>
    <vehicle-class value="pedestrian"/>
    <fringe-factor value="1"/>
    <insertion-density value="10.0"/>
    <duarouter-weights.tls-penalty value="20"/>
</configuration>
-->

<routes xmlns:xsi="http://www.w3.org/2001/XMLSchema-instance" xsi:noNamespaceSchemaLocation="http://sumo.dlr.de/xsd/routes_file.xsd">
    <vType id="ped_pedestrian" vClass="pedestrian"/>
    <person id="ped0" depart="0.00" type="ped_pedestrian">
        <personTrip from="225485350#3" to="-225470252#3" modes="public"/>
    </person>
    <person id="ped1" depart="11.81" type="ped_pedestrian">
        <personTrip from="1050574279#1" to="-563620322" modes="public"/>
    </person>
    <person id="ped2" depart="23.62" type="ped_pedestrian">
        <personTrip from="335766015#0" to="225571232#1" modes="public"/>
    </person>
    <person id="ped3" depart="35.42" type="ped_pedestrian">
        <personTrip from="563602686#0" to="-415361890#2" modes="public"/>
    </person>
    <person id="ped4" depart="47.23" type="ped_pedestrian">
        <personTrip from="225466111#1" to="-225485355" modes="public"/>
    </person>
    <person id="ped5" depart="59.04" type="ped_pedestrian">
        <personTrip from="-563620311#1" to="225470236#6" modes="public"/>
    </person>
    <person id="ped6" depart="70.85" type="ped_pedestrian">
        <personTrip from="-225470252#4" to="-563620270#0" modes="public"/>
    </person>
    <person id="ped7" depart="82.66" type="ped_pedestrian">
        <personTrip from="225485361#1" to="225470257" modes="public"/>
    </person>
    <person id="ped8" depart="94.46" type="ped_pedestrian">
        <personTrip from="-563620314" to="225476493#1" modes="public"/>
    </person>
    <person id="ped9" depart="106.27" type="ped_pedestrian">
        <personTrip from="543914349#1" to="-1085025207" modes="public"/>
    </person>
    <person id="ped10" depart="118.08" type="ped_pedestrian">
        <personTrip from="543914346#3" to="258844487#0" modes="public"/>
    </person>
    <person id="ped11" depart="129.89" type="ped_pedestrian">
        <personTrip from="225446893#1" to="-563602539" modes="public"/>
    </person>
    <person id="ped12" depart="141.70" type="ped_pedestrian">
        <personTrip from="585995063#6" to="225446891#3" modes="public"/>
    </person>
    <person id="ped13" depart="153.50" type="ped_pedestrian">
        <personTrip from="-425380529" to="-440267648#1" modes="public"/>
    </person>
    <person id="ped14" depart="165.31" type="ped_pedestrian">
        <personTrip from="563602518" to="225485327#1" modes="public"/>
    </person>
    <person id="ped15" depart="177.12" type="ped_pedestrian">
        <personTrip from="543914347" to="335765998" modes="public"/>
    </person>
    <person id="ped16" depart="188.93" type="ped_pedestrian">
        <personTrip from="225470252#1" to="656443276" modes="public"/>
    </person>
    <person id="ped17" depart="200.73" type="ped_pedestrian">
        <personTrip from="225466094#1" to="225470262#4" modes="public"/>
    </person>
    <person id="ped18" depart="212.54" type="ped_pedestrian">
        <personTrip from="561883409#5" to="225485338#0" modes="public"/>
    </person>
    <person id="ped19" depart="224.35" type="ped_pedestrian">
        <personTrip from="563602543" to="225470359#0" modes="public"/>
    </person>
    <person id="ped20" depart="236.16" type="ped_pedestrian">
        <personTrip from="276157215#3" to="-258844490" modes="public"/>
    </person>
    <person id="ped21" depart="247.97" type="ped_pedestrian">
        <personTrip from="-563620349" to="1134398600#0" modes="public"/>
    </person>
    <person id="ped22" depart="259.77" type="ped_pedestrian">
        <personTrip from="-415361887" to="-563620363" modes="public"/>
    </person>
    <person id="ped23" depart="271.58" type="ped_pedestrian">
        <personTrip from="-543914343#1" to="1050574279#4" modes="public"/>
    </person>
    <person id="ped24" depart="283.39" type="ped_pedestrian">
        <personTrip from="225485350#0" to="225466082" modes="public"/>
    </person>
    <person id="ped25" depart="295.20" type="ped_pedestrian">
        <personTrip from="225466087" to="-563620287#1" modes="public"/>
    </person>
    <person id="ped26" depart="307.01" type="ped_pedestrian">
        <personTrip from="1050574261#1" to="563620340" modes="public"/>
    </person>
    <person id="ped27" depart="318.81" type="ped_pedestrian">
        <personTrip from="225485360#1" to="225485331#1" modes="public"/>
    </person>
    <person id="ped28" depart="330.62" type="ped_pedestrian">
        <personTrip from="-563602655" to="335765998" modes="public"/>
    </person>
    <person id="ped29" depart="342.43" type="ped_pedestrian">
        <personTrip from="-563602576" to="225466094#2" modes="public"/>
    </person>
    <person id="ped30" depart="354.24" type="ped_pedestrian">
        <personTrip from="837196484" to="225485353#0" modes="public"/>
    </person>
    <person id="ped31" depart="366.05" type="ped_pedestrian">
        <personTrip from="225470265#1" to="225572146" modes="public"/>
    </person>
    <person id="ped32" depart="377.85" type="ped_pedestrian">
        <personTrip from="563602507#0" to="415361890#2" modes="public"/>
    </person>
    <person id="ped33" depart="389.66" type="ped_pedestrian">
        <personTrip from="-563620350" to="-243606240" modes="public"/>
    </person>
    <person id="ped34" depart="401.47" type="ped_pedestrian">
        <personTrip from="169152467#0" to="1050574261#1" modes="public"/>
    </person>
    <person id="ped35" depart="413.28" type="ped_pedestrian">
        <personTrip from="-563620292" to="563620366" modes="public"/>
    </person>
    <person id="ped36" depart="425.09" type="ped_pedestrian">
        <personTrip from="563602618" to="169152467#0" modes="public"/>
    </person>
    <person id="ped37" depart="436.89" type="ped_pedestrian">
        <personTrip from="225485362#0" to="225466100#0" modes="public"/>
    </person>
    <person id="ped38" depart="448.70" type="ped_pedestrian">
        <personTrip from="563620281#0" to="225466124#4" modes="public"/>
    </person>
    <person id="ped39" depart="460.51" type="ped_pedestrian">
        <personTrip from="1050574260#1" to="-656443275" modes="public"/>
    </person>
    <person id="ped40" depart="472.32" type="ped_pedestrian">
        <personTrip from="225470267#1" to="1046388838#2" modes="public"/>
    </person>
    <person id="ped41" depart="484.12" type="ped_pedestrian">
        <personTrip from="225476492#1" to="563616167#1" modes="public"/>
    </person>
    <person id="ped42" depart="495.93" type="ped_pedestrian">
        <personTrip from="225466100#3" to="-563620312" modes="public"/>
    </person>
    <person id="ped43" depart="507.74" type="ped_pedestrian">
        <personTrip from="837196490" to="225470240#0" modes="public"/>
    </person>
    <person id="ped44" depart="519.55" type="ped_pedestrian">
        <personTrip from="-415361892#1" to="-273902601#2" modes="public"/>
    </person>
    <person id="ped45" depart="531.36" type="ped_pedestrian">
        <personTrip from="-543914349#0" to="225485343" modes="public"/>
    </person>
    <person id="ped46" depart="543.16" type="ped_pedestrian">
        <personTrip from="543821135" to="225466111#1" modes="public"/>
    </person>
    <person id="ped47" depart="554.97" type="ped_pedestrian">
        <personTrip from="-335765986#4" to="225466096#0" modes="public"/>
    </person>
    <person id="ped48" depart="566.78" type="ped_pedestrian">
        <personTrip from="837196488" to="225470245#2" modes="public"/>
    </person>
    <person id="ped49" depart="578.59" type="ped_pedestrian">
        <personTrip from="656443274#2" to="563602541" modes="public"/>
    </person>
    <person id="ped50" depart="590.40" type="ped_pedestrian">
        <personTrip from="-180244632#2" to="335765986#6" modes="public"/>
    </person>
    <person id="ped51" depart="602.20" type="ped_pedestrian">
        <personTrip from="225571730" to="225470252#3" modes="public"/>
    </person>
    <person id="ped52" depart="614.01" type="ped_pedestrian">
        <personTrip from="1050574261#1" to="225485353#1" modes="public"/>
    </person>
    <person id="ped53" depart="625.82" type="ped_pedestrian">
        <personTrip from="-543921248#0" to="225466116" modes="public"/>
    </person>
    <person id="ped54" depart="637.63" type="ped_pedestrian">
        <personTrip from="225466123#4" to="585995063#3" modes="public"/>
    </person>
    <person id="ped55" depart="649.44" type="ped_pedestrian">
        <personTrip from="563602618" to="1046388838#2" modes="public"/>
    </person>
    <person id="ped56" depart="661.24" type="ped_pedestrian">
        <personTrip from="225470236#2" to="-563602679" modes="public"/>
    </person>
    <person id="ped57" depart="673.05" type="ped_pedestrian">
        <personTrip from="563620276" to="563602575#0" modes="public"/>
    </person>
    <person id="ped58" depart="684.86" type="ped_pedestrian">
        <personTrip from="1134398603" to="225485350#3" modes="public"/>
    </person>
    <person id="ped59" depart="696.67" type="ped_pedestrian">
        <personTrip from="225485331#1" to="-563602528#0" modes="public"/>
    </person>
    <person id="ped60" depart="708.48" type="ped_pedestrian">
        <personTrip from="372765901#3" to="225470252#5" modes="public"/>
    </person>
    <person id="ped61" depart="720.28" type="ped_pedestrian">
        <personTrip from="415361891#0" to="225470246#0" modes="public"/>
    </person>
    <person id="ped62" depart="732.09" type="ped_pedestrian">
        <personTrip from="-1020412074" to="183191792#1" modes="public"/>
    </person>
    <person id="ped63" depart="743.90" type="ped_pedestrian">
        <personTrip from="-183191792#3" to="563620312" modes="public"/>
    </person>
    <person id="ped64" depart="755.71" type="ped_pedestrian">
        <personTrip from="563602650#1" to="561883410#0" modes="public"/>
    </person>
    <person id="ped65" depart="767.52" type="ped_pedestrian">
        <personTrip from="1134398609" to="-335765983#1" modes="public"/>
    </person>
    <person id="ped66" depart="779.32" type="ped_pedestrian">
        <personTrip from="563602650#1" to="568382080" modes="public"/>
    </person>
    <person id="ped67" depart="791.13" type="ped_pedestrian">
        <personTrip from="-415361890#1" to="225466137#0" modes="public"/>
    </person>
    <person id="ped68" depart="802.94" type="ped_pedestrian">
        <personTrip from="-372396764#0" to="372765901#1" modes="public"/>
    </person>
    <person id="ped69" depart="814.75" type="ped_pedestrian">
        <personTrip from="413506553#0" to="-561883409#3" modes="public"/>
    </person>
    <person id="ped70" depart="826.55" type="ped_pedestrian">
        <personTrip from="225466129#1" to="225470262#2" modes="public"/>
    </person>
    <person id="ped71" depart="838.36" type="ped_pedestrian">
        <personTrip from="1050574260#1" to="563602575#1" modes="public"/>
    </person>
    <person id="ped72" depart="850.17" type="ped_pedestrian">
        <personTrip from="225466111#2" to="-563620296" modes="public"/>
    </person>
    <person id="ped73" depart="861.98" type="ped_pedestrian">
        <personTrip from="225470252#5" to="335765998" modes="public"/>
    </person>
    <person id="ped74" depart="873.79" type="ped_pedestrian">
        <personTrip from="-563620274" to="1183056880#0" modes="public"/>
    </person>
    <person id="ped75" depart="885.59" type="ped_pedestrian">
        <personTrip from="837196486" to="225485361#1" modes="public"/>
    </person>
    <person id="ped76" depart="897.40" type="ped_pedestrian">
        <personTrip from="225466117#2" to="225470243#0" modes="public"/>
    </person>
    <person id="ped77" depart="909.21" type="ped_pedestrian">
        <personTrip from="-561883405" to="-563620325#0" modes="public"/>
    </person>
    <person id="ped78" depart="921.02" type="ped_pedestrian">
        <personTrip from="225446891#5" to="225476493#0" modes="public"/>
    </person>
    <person id="ped79" depart="932.83" type="ped_pedestrian">
        <personTrip from="-563620352#0" to="-563620314" modes="public"/>
    </person>
    <person id="ped80" depart="944.63" type="ped_pedestrian">
        <personTrip from="-372396764#3" to="225485346#2" modes="public"/>
    </person>
    <person id="ped81" depart="956.44" type="ped_pedestrian">
        <personTrip from="-563620350" to="563620263#1" modes="public"/>
    </person>
    <person id="ped82" depart="968.25" type="ped_pedestrian">
        <personTrip from="563602539" to="-372396764#3" modes="public"/>
    </person>
    <person id="ped83" depart="980.06" type="ped_pedestrian">
        <personTrip from="-585994313" to="225571225" modes="public"/>
    </person>
    <person id="ped84" depart="991.87" type="ped_pedestrian">
        <personTrip from="-563620305" to="-561883410#0" modes="public"/>
    </person>
    <person id="ped85" depart="1003.67" type="ped_pedestrian">
        <personTrip from="563620329#1" to="225470357#1" modes="public"/>
    </person>
    <person id="ped86" depart="1015.48" type="ped_pedestrian">
        <personTrip from="225466128#2" to="440267648#0" modes="public"/>
    </person>
    <person id="ped87" depart="1027.29" type="ped_pedestrian">
        <personTrip from="543914347" to="-563616189#0" modes="public"/>
    </person>
    <person id="ped88" depart="1039.10" type="ped_pedestrian">
        <personTrip from="-440267648#1" to="225466115#0" modes="public"/>
    </person>
    <person id="ped89" depart="1050.91" type="ped_pedestrian">
        <personTrip from="225466111#2" to="225466127#0" modes="public"/>
    </person>
    <person id="ped90" depart="1062.71" type="ped_pedestrian">
        <personTrip from="335765998" to="225571230" modes="public"/>
    </person>
    <person id="ped91" depart="1074.52" type="ped_pedestrian">
        <personTrip from="778437849" to="-440267648#2" modes="public"/>
    </person>
    <person id="ped92" depart="1086.33" type="ped_pedestrian">
        <personTrip from="225466102#1" to="225446893#0" modes="public"/>
    </person>
    <person id="ped93" depart="1098.14" type="ped_pedestrian">
        <personTrip from="563602543" to="-737722158" modes="public"/>
    </person>
    <person id="ped94" depart="1109.94" type="ped_pedestrian">
        <personTrip from="-563616188#1" to="225466123#0" modes="public"/>
    </person>
    <person id="ped95" depart="1121.75" type="ped_pedestrian">
        <personTrip from="225466111#0" to="1050574279#5" modes="public"/>
    </person>
    <person id="ped96" depart="1133.56" type="ped_pedestrian">
        <personTrip from="-837196483" to="563620296" modes="public"/>
    </person>
    <person id="ped97" depart="1145.37" type="ped_pedestrian">
        <personTrip from="225466118#1" to="563602543" modes="public"/>
    </person>
    <person id="ped98" depart="1157.18" type="ped_pedestrian">
        <personTrip from="225470262#2" to="-276157215#2" modes="public"/>
    </person>
    <person id="ped99" depart="1168.98" type="ped_pedestrian">
        <personTrip from="920874877" to="563602462#0" modes="public"/>
    </person>
    <person id="ped100" depart="1180.79" type="ped_pedestrian">
        <personTrip from="656443274#0" to="563620307" modes="public"/>
    </person>
    <person id="ped101" depart="1192.60" type="ped_pedestrian">
        <personTrip from="563602520" to="-563602648" modes="public"/>
    </person>
    <person id="ped102" depart="1204.41" type="ped_pedestrian">
        <personTrip from="225466136#1" to="-563620305" modes="public"/>
    </person>
    <person id="ped103" depart="1216.22" type="ped_pedestrian">
        <personTrip from="225466100#5" to="-335765986#0" modes="public"/>
    </person>
    <person id="ped104" depart="1228.02" type="ped_pedestrian">
        <personTrip from="225466094#1" to="778437850" modes="public"/>
    </person>
    <person id="ped105" depart="1239.83" type="ped_pedestrian">
        <personTrip from="1050574260#1" to="440267646" modes="public"/>
    </person>
    <person id="ped106" depart="1251.64" type="ped_pedestrian">
        <personTrip from="225466124#10" to="225466111#2" modes="public"/>
    </person>
    <person id="ped107" depart="1263.45" type="ped_pedestrian">
        <personTrip from="585995063#6" to="837196486" modes="public"/>
    </person>
    <person id="ped108" depart="1275.26" type="ped_pedestrian">
        <personTrip from="225470264#2" to="335765986#4" modes="public"/>
    </person>
    <person id="ped109" depart="1287.06" type="ped_pedestrian">
        <personTrip from="-563602533#0" to="1134398602" modes="public"/>
    </person>
    <person id="ped110" depart="1298.87" type="ped_pedestrian">
        <personTrip from="656443274#0" to="225470359#2" modes="public"/>
    </person>
    <person id="ped111" depart="1310.68" type="ped_pedestrian">
        <personTrip from="225470253#1" to="372396764#4" modes="public"/>
    </person>
    <person id="ped112" depart="1322.49" type="ped_pedestrian">
        <personTrip from="-335765983#0" to="225476492#0" modes="public"/>
    </person>
    <person id="ped113" depart="1334.30" type="ped_pedestrian">
        <personTrip from="225470236#4" to="563602526#1" modes="public"/>
    </person>
    <person id="ped114" depart="1346.10" type="ped_pedestrian">
        <personTrip from="-563602559" to="585995065#0" modes="public"/>
    </person>
    <person id="ped115" depart="1357.91" type="ped_pedestrian">
        <personTrip from="-415361887" to="-563616166" modes="public"/>
    </person>
    <person id="ped116" depart="1369.72" type="ped_pedestrian">
        <personTrip from="225476497#1" to="225571232#0" modes="public"/>
    </person>
    <person id="ped117" depart="1381.53" type="ped_pedestrian">
        <personTrip from="-563626602" to="-561883404" modes="public"/>
    </person>
    <person id="ped118" depart="1393.34" type="ped_pedestrian">
        <personTrip from="563602675#0" to="-656443274#3" modes="public"/>
    </person>
    <person id="ped119" depart="1405.14" type="ped_pedestrian">
        <personTrip from="225476497#1" to="225485338#0" modes="public"/>
    </person>
    <person id="ped120" depart="1416.95" type="ped_pedestrian">
        <personTrip from="225466110#3" to="225476492#0" modes="public"/>
    </person>
    <person id="ped121" depart="1428.76" type="ped_pedestrian">
        <personTrip from="225470244#1" to="563620325#1" modes="public"/>
    </person>
    <person id="ped122" depart="1440.57" type="ped_pedestrian">
        <personTrip from="-563620281#0" to="335765986#1" modes="public"/>
    </person>
    <person id="ped123" depart="1452.37" type="ped_pedestrian">
        <personTrip from="-585994314" to="225466100#0" modes="public"/>
    </person>
    <person id="ped124" depart="1464.18" type="ped_pedestrian">
        <personTrip from="225571229" to="1134398605#0" modes="public"/>
    </person>
    <person id="ped125" depart="1475.99" type="ped_pedestrian">
        <personTrip from="180244632#1" to="372707394" modes="public"/>
    </person>
    <person id="ped126" depart="1487.80" type="ped_pedestrian">
        <personTrip from="-372707394" to="225466124#4" modes="public"/>
    </person>
    <person id="ped127" depart="1499.61" type="ped_pedestrian">
        <personTrip from="9121991" to="837196488" modes="public"/>
    </person>
    <person id="ped128" depart="1511.41" type="ped_pedestrian">
        <personTrip from="-372707394" to="-563620298" modes="public"/>
    </person>
    <person id="ped129" depart="1523.22" type="ped_pedestrian">
        <personTrip from="1050574260#1" to="563620320#1" modes="public"/>
    </person>
    <person id="ped130" depart="1535.03" type="ped_pedestrian">
        <personTrip from="563602652" to="563602651#1" modes="public"/>
    </person>
    <person id="ped131" depart="1546.84" type="ped_pedestrian">
        <personTrip from="225466085" to="-563602559" modes="public"/>
    </person>
    <person id="ped132" depart="1558.65" type="ped_pedestrian">
        <personTrip from="563602456" to="276157215#2" modes="public"/>
    </person>
    <person id="ped133" depart="1570.45" type="ped_pedestrian">
        <personTrip from="225485333#1" to="778437851" modes="public"/>
    </person>
    <person id="ped134" depart="1582.26" type="ped_pedestrian">
        <personTrip from="225485361#5" to="-1134398611" modes="public"/>
    </person>
    <person id="ped135" depart="1594.07" type="ped_pedestrian">
        <personTrip from="561883400" to="1134398604" modes="public"/>
    </person>
    <person id="ped136" depart="1605.88" type="ped_pedestrian">
        <personTrip from="225486065#0" to="563620352#0" modes="public"/>
    </person>
    <person id="ped137" depart="1617.69" type="ped_pedestrian">
        <personTrip from="-563602462#0" to="-551576182" modes="public"/>
    </person>
    <person id="ped138" depart="1629.49" type="ped_pedestrian">
        <personTrip from="-543914346#1" to="225470264#0" modes="public"/>
    </person>
    <person id="ped139" depart="1641.30" type="ped_pedestrian">
        <personTrip from="1050574265" to="225485328" modes="public"/>
    </person>
    <person id="ped140" depart="1653.11" type="ped_pedestrian">
        <personTrip from="335765986#3" to="-563620280" modes="public"/>
    </person>
    <person id="ped141" depart="1664.92" type="ped_pedestrian">
        <personTrip from="225485347#2" to="1050574260#0" modes="public"/>
    </person>
    <person id="ped142" depart="1676.73" type="ped_pedestrian">
        <personTrip from="225466137#2" to="563620263#0" modes="public"/>
    </person>
    <person id="ped143" depart="1688.53" type="ped_pedestrian">
        <personTrip from="563602516" to="-415361893#0" modes="public"/>
    </person>
    <person id="ped144" depart="1700.34" type="ped_pedestrian">
        <personTrip from="225466111#2" to="1050574279#3" modes="public"/>
    </person>
    <person id="ped145" depart="1712.15" type="ped_pedestrian">
        <personTrip from="-1046388838#0" to="415361889#0" modes="public"/>
    </person>
    <person id="ped146" depart="1723.96" type="ped_pedestrian">
        <personTrip from="225485350#1" to="1046388838#1" modes="public"/>
    </person>
    <person id="ped147" depart="1735.76" type="ped_pedestrian">
        <personTrip from="346382722#0" to="225470262#4" modes="public"/>
    </person>
    <person id="ped148" depart="1747.57" type="ped_pedestrian">
        <personTrip from="225466112#2" to="-180244632#1" modes="public"/>
    </person>
    <person id="ped149" depart="1759.38" type="ped_pedestrian">
        <personTrip from="-372715927#0" to="563602655" modes="public"/>
    </person>
    <person id="ped150" depart="1771.19" type="ped_pedestrian">
        <personTrip from="563620261" to="225470258#0" modes="public"/>
    </person>
    <person id="ped151" depart="1783.00" type="ped_pedestrian">
        <personTrip from="563602459" to="225473463" modes="public"/>
    </person>
    <person id="ped152" depart="1794.80" type="ped_pedestrian">
        <personTrip from="-563602522#1" to="-561883409#2" modes="public"/>
    </person>
    <person id="ped153" depart="1806.61" type="ped_pedestrian">
        <personTrip from="1134398610" to="563616187#1" modes="public"/>
    </person>
    <person id="ped154" depart="1818.42" type="ped_pedestrian">
        <personTrip from="543821137" to="563602541" modes="public"/>
    </person>
    <person id="ped155" depart="1830.23" type="ped_pedestrian">
        <personTrip from="563616187#1" to="-563620287#1" modes="public"/>
    </person>
    <person id="ped156" depart="1842.04" type="ped_pedestrian">
        <personTrip from="-828146450#0" to="-543914344#0" modes="public"/>
    </person>
    <person id="ped157" depart="1853.84" type="ped_pedestrian">
        <personTrip from="415361892#1" to="563602655" modes="public"/>
    </person>
    <person id="ped158" depart="1865.65" type="ped_pedestrian">
        <personTrip from="225466102#5" to="225485339#0" modes="public"/>
    </person>
    <person id="ped159" depart="1877.46" type="ped_pedestrian">
        <personTrip from="-563602533#0" to="563620317" modes="public"/>
    </person>
    <person id="ped160" depart="1889.27" type="ped_pedestrian">
        <personTrip from="563602568#1" to="778437842#1" modes="public"/>
    </person>
    <person id="ped161" depart="1901.08" type="ped_pedestrian">
        <personTrip from="543921248#1" to="563602653#0" modes="public"/>
    </person>
    <person id="ped162" depart="1912.88" type="ped_pedestrian">
        <personTrip from="-225470252#3" to="335766015#0" modes="public"/>
    </person>
    <person id="ped163" depart="1924.69" type="ped_pedestrian">
        <personTrip from="225446890" to="563620317" modes="public"/>
    </person>
    <person id="ped164" depart="1936.50" type="ped_pedestrian">
        <personTrip from="543914344#1" to="563602568#1" modes="public"/>
    </person>
    <person id="ped165" depart="1948.31" type="ped_pedestrian">
        <personTrip from="543921248#1" to="1050574261#1" modes="public"/>
    </person>
    <person id="ped166" depart="1960.12" type="ped_pedestrian">
        <personTrip from="440267648#2" to="-543914346#2" modes="public"/>
    </person>
    <person id="ped167" depart="1971.92" type="ped_pedestrian">
        <personTrip from="563602575#1" to="563602537#1" modes="public"/>
    </person>
    <person id="ped168" depart="1983.73" type="ped_pedestrian">
        <personTrip from="-563620320#1" to="561883400" modes="public"/>
    </person>
    <person id="ped169" depart="1995.54" type="ped_pedestrian">
        <personTrip from="225466124#6" to="1134398608#0" modes="public"/>
    </person>
    <person id="ped170" depart="2007.35" type="ped_pedestrian">
        <personTrip from="543821136#2" to="-563620349" modes="public"/>
    </person>
    <person id="ped171" depart="2019.16" type="ped_pedestrian">
        <personTrip from="-225470252#1" to="-563620260" modes="public"/>
    </person>
    <person id="ped172" depart="2030.96" type="ped_pedestrian">
        <personTrip from="183191792#4" to="563602568#1" modes="public"/>
    </person>
    <person id="ped173" depart="2042.77" type="ped_pedestrian">
        <personTrip from="631653305#0" to="1050574279#5" modes="public"/>
    </person>
    <person id="ped174" depart="2054.58" type="ped_pedestrian">
        <personTrip from="225485353#1" to="225466100#4" modes="public"/>
    </person>
    <person id="ped175" depart="2066.39" type="ped_pedestrian">
        <personTrip from="778437844#1" to="225470252#1" modes="public"/>
    </person>
    <person id="ped176" depart="2078.19" type="ped_pedestrian">
        <personTrip from="563620352#0" to="-551576182" modes="public"/>
    </person>
    <person id="ped177" depart="2090.00" type="ped_pedestrian">
        <personTrip from="656443274#2" to="-563602679" modes="public"/>
    </person>
    <person id="ped178" depart="2101.81" type="ped_pedestrian">
        <personTrip from="585995065#1" to="1050574260#1" modes="public"/>
    </person>
    <person id="ped179" depart="2113.62" type="ped_pedestrian">
        <personTrip from="-543914348" to="225466115#3" modes="public"/>
    </person>
    <person id="ped180" depart="2125.43" type="ped_pedestrian">
        <personTrip from="335765996" to="169152446#0" modes="public"/>
    </person>
    <person id="ped181" depart="2137.23" type="ped_pedestrian">
        <personTrip from="225485330#0" to="225470240#2" modes="public"/>
    </person>
    <person id="ped182" depart="2149.04" type="ped_pedestrian">
        <personTrip from="225466096#3" to="225470358#3" modes="public"/>
    </person>
    <person id="ped183" depart="2160.85" type="ped_pedestrian">
        <personTrip from="-837196485#3" to="283536958" modes="public"/>
    </person>
    <person id="ped184" depart="2172.66" type="ped_pedestrian">
        <personTrip from="-1046388837#0" to="563620304" modes="public"/>
    </person>
    <person id="ped185" depart="2184.47" type="ped_pedestrian">
        <personTrip from="225470252#4" to="335765986#4" modes="public"/>
    </person>
    <person id="ped186" depart="2196.27" type="ped_pedestrian">
        <personTrip from="346382722#1" to="225571228" modes="public"/>
    </person>
    <person id="ped187" depart="2208.08" type="ped_pedestrian">
        <personTrip from="225466081#3" to="-372396764#0" modes="public"/>
    </person>
    <person id="ped188" depart="2219.89" type="ped_pedestrian">
        <personTrip from="225486065#1" to="183191792#6" modes="public"/>
    </person>
    <person id="ped189" depart="2231.70" type="ped_pedestrian">
        <personTrip from="169152446#0" to="563602518" modes="public"/>
    </person>
    <person id="ped190" depart="2243.51" type="ped_pedestrian">
        <personTrip from="335765986#5" to="1134398605#0" modes="public"/>
    </person>
    <person id="ped191" depart="2255.31" type="ped_pedestrian">
        <personTrip from="1134398611" to="225466102#7" modes="public"/>
    </person>
    <person id="ped192" depart="2267.12" type="ped_pedestrian">
        <personTrip from="225466102#1" to="1134398601#2" modes="public"/>
    </person>
    <person id="ped193" depart="2278.93" type="ped_pedestrian">