<?xml version="1.0" encoding="UTF-8"?>

<!-- generated on 2025-03-02 09:02:41.055321 by osmWebWizard.py v1_21_0+0000-d7b3b481c43
<configuration>
    <net-file value="C:\Users\evans\Sumo\2025-03-02-09-02-35\osm.net.xml.gz"/>
    <output-trip-file value="C:\Users\evans\Sumo\2025-03-02-09-02-35\osm.bicycle.trips.xml"/>
    <route-file value="C:\Users\evans\Sumo\2025-03-02-09-02-35\osm.bicycle.rou.xml"/>
    <prefix value="bike"/>
    <trip-attributes value="departLane=&quot;best&quot;"/>
    <fringe-start-attributes value="departSpeed=&quot;max&quot;"/>
    <vehicle-class value="bicycle"/>
    <fringe-factor value="2"/>
    <vclass value="bicycle"/>
    <via-edge-types value="highway.motorway,highway.motorway_link,highway.trunk_link,highway.primary_link,highway.secondary_link,highway.tertiary_link"/>
    <max-distance value="8000.0"/>
    <remove-loops value="True"/>
    <validate value="True"/>
    <end value="86400.0"/>
    <insertion-density value="6.0"/>
</configuration>
-->

<!-- generated on 2025-03-02 09:02:40 by Eclipse SUMO duarouter Version 1.21.0
<duarouterConfiguration xmlns:xsi="http://www.w3.org/2001/XMLSchema-instance" xsi:noNamespaceSchemaLocation="http://sumo.dlr.de/xsd/duarouterConfiguration.xsd">

    <input>
        <net-file value="C:\Users\evans\Sumo\2025-03-02-09-02-35\osm.net.xml.gz"/>
        <route-files value="C:\Users\evans\Sumo\2025-03-02-09-02-35\osm.bicycle.trips.xml"/>
    </input>

    <output>
        <output-file value="C:\Users\evans\Sumo\2025-03-02-09-02-35\osm.bicycle.trips.xml.tmp"/>
        <alternatives-output value="NUL"/>
        <write-trips value="true"/>
    </output>

    <processing>
        <remove-loops value="true"/>
    </processing>

    <time>
        <begin value="0.0"/>
        <end value="86400.0"/>
    </time>

    <report>
        <no-warnings value="true"/>
        <ignore-errors value="true"/>
        <no-step-log value="true"/>
    </report>

</duarouterConfiguration>
-->

<routes xmlns:xsi="http://www.w3.org/2001/XMLSchema-instance" xsi:noNamespaceSchemaLocation="http://sumo.dlr.de/xsd/routes_file.xsd">
    <vType id="bike_bicycle" vClass="bicycle"/>
    <trip id="bike0" type="bike_bicycle" depart="0.00" departLane="best" departSpeed="max" from="415361890#0" to="-180244626#2"/>
    <trip id="bike1" type="bike_bicycle" depart="16.33" departLane="best" departSpeed="max" from="-563602539" to="-563602507#0"/>
    <trip id="bike2" type="bike_bicycle" depart="32.67" departLane="best" from="563602496#1" to="-561883409#6"/>
    <trip id="bike3" type="bike_bicycle" depart="49.00" departLane="best" from="568382083#2" to="-287145656#2"/>
    <trip id="bike4" type="bike_bicycle" depart="65.33" departLane="best" departSpeed="max" from="-585994313" to="180244632#3"/>
    <trip id="bike5" type="bike_bicycle" depart="81.67" departLane="best" departSpeed="max" from="-561883407" to="225485355"/>
    <trip id="bike6" type="bike_bicycle" depart="98.00" departLane="best" from="-180244626#1" to="-561883409#0"/>
    <trip id="bike8" type="bike_bicycle" depart="130.66" departLane="best" departSpeed="max" from="-561883408#1" to="415361889#0"/>
    <trip id="bike9" type="bike_bicycle" depart="147.00" departLane="best" from="-563616189#0" to="1046388838#2"/>
    <trip id="bike10" type="bike_bicycle" depart="163.33" departLane="best" from="-563616188#2" to="-563602486"/>
    <trip id="bike11" type="bike_bicycle" depart="179.66" departLane="best" from="-563616189#0" to="-440267647"/>
    <trip id="bike12" type="bike_bicycle" depart="196.00" departLane="best" from="656443274#4" to="-183191745#0"/>
    <trip id="bike14" type="bike_bicycle" depart="228.66" departLane="best" from="563620325#1" to="425377800#1"/>
    <trip id="bike15" type="bike_bicycle" depart="245.00" departLane="best" from="563616188#3" to="563602541"/>
    <trip id="bike16" type="bike_bicycle" depart="261.33" departLane="best" from="180244636#4" to="837196485#2"/>
    <trip id="bike17" type="bike_bicycle" depart="277.66" departLane="best" from="-563620320#0" to="335766023#1"/>
    <trip id="bike18" type="bike_bicycle" depart="293.99" departLane="best" from="563620284" to="-440267648#0"/>
    <trip id="bike20" type="bike_bicycle" depart="326.66" departLane="best" from="543921248#1" to="180244652#0"/>
    <trip id="bike21" type="bike_bicycle" depart="342.99" departLane="best" from="561883409#4" to="563620287#0"/>
    <trip id="bike23" type="bike_bicycle" depart="375.66" departLane="best" from="-276157215#5" to="-563620267"/>
    <trip id="bike24" type="bike_bicycle" depart="391.99" departLane="best" from="-415361889#0" to="586413246#8"/>
    <trip id="bike25" type="bike_bicycle" depart="408.33" departLane="best" from="-563620310" to="563602462#0"/>
    <trip id="bike26" type="bike_bicycle" depart="424.66" departLane="best" from="-563602522#1" to="586413246#7"/>
    <trip id="bike28" type="bike_bicycle" depart="457.32" departLane="best" from="-425380530" to="563602541"/>
    <trip id="bike29" type="bike_bicycle" depart="473.66" departLane="best" departSpeed="max" from="-425379246#1" to="-656443274#4"/>
    <trip id="bike30" type="bike_bicycle" depart="489.99" departLane="best" from="-9151585#5" to="543914343#2"/>
    <trip id="bike31" type="bike_bicycle" depart="506.32" departLane="best" from="183191792#0" to="563602462#1"/>
    <trip id="bike32" type="bike_bicycle" depart="522.66" departLane="best" from="563620318" to="563602653#1"/>
    <trip id="bike33" type="bike_bicycle" depart="538.99" departLane="best" from="561883409#5" to="-180244632#4"/>
    <trip id="bike34" type="bike_bicycle" depart="555.32" departLane="best" from="183191792#4" to="563616188#3"/>
    <trip id="bike35" type="bike_bicycle" depart="571.66" departLane="best" from="-561883401" to="586413259#0"/>
    <trip id="bike36" type="bike_bicycle" depart="587.99" departLane="best" from="586413266#3" to="-563620349"/>
    <trip id="bike37" type="bike_bicycle" depart="604.32" departLane="best" from="-425377800#0" to="-9120871"/>
    <trip id="bike38" type="bike_bicycle" depart="620.65" departLane="best" from="586413246#1" to="-180244636#4"/>
    <trip id="bike39" type="bike_bicycle" depart="636.99" departLane="best" from="-563602522#0" to="563602647"/>
    <trip id="bike40" type="bike_bicycle" depart="653.32" departLane="best" from="183191792#4" to="563616187#1"/>
    <trip id="bike41" type="bike_bicycle" depart="669.65" departLane="best" from="276157215#1" to="568382083#1"/>
    <trip id="bike42" type="bike_bicycle" depart="685.99" departLane="best" from="568382083#2" to="-563602500"/>
    <trip id="bike46" type="bike_bicycle" depart="751.32" departLane="best" from="563602665#1" to="1046388838#0"/>
    <trip id="bike47" type="bike_bicycle" depart="767.65" departLane="best" from="183191792#3" to="-656443274#6"/>
    <trip id="bike48" type="bike_bicycle" depart="783.98" departLane="best" from="920874877#1" to="276157215#3"/>
    <trip id="bike49" type="bike_bicycle" depart="800.32" departLane="best" from="837196485#2" to="563620356"/>
    <trip id="bike50" type="bike_bicycle" depart="816.65" departLane="best" departSpeed="max" from="-1134398611" to="563602528#1"/>
    <trip id="bike51" type="bike_bicycle" depart="832.98" departLane="best" from="531094133#1" to="-287145656#3"/>
    <trip id="bike52" type="bike_bicycle" depart="849.32" departLane="best" from="-563602522#1" to="543914344#0"/>
    <trip id="bike53" type="bike_bicycle" depart="865.65" departLane="best" from="-335765986#1" to="-1339425865#1"/>
    <trip id="bike54" type="bike_bicycle" depart="881.98" departLane="best" from="-586413246#8" to="-656443273"/>
    <trip id="bike55" type="bike_bicycle" depart="898.32" departLane="best" from="565255792#4" to="-563616188#0"/>
    <trip id="bike56" type="bike_bicycle" depart="914.65" departLane="best" from="920874877#4" to="-543914346#1"/>
    <trip id="bike57" type="bike_bicycle" depart="930.98" departLane="best" from="563602537#1" to="563620379"/>
    <trip id="bike58" type="bike_bicycle" depart="947.31" departLane="best" departSpeed="max" from="-563602637" to="543914343#1"/>
    <trip id="bike59" type="bike_bicycle" depart="963.65" departLane="best" from="335766023#1" to="425380531"/>
    <trip id="bike60" type="bike_bicycle" depart="979.98" departLane="best" from="563602548" to="335765983#1"/>
    <trip id="bike61" type="bike_bicycle" depart="996.31" departLane="best" from="563602644" to="276157215#5"/>
    <trip id="bike63" type="bike_bicycle" depart="1028.98" departLane="best" from="-1363617805" to="586413246#18"/>
    <trip id="bike64" type="bike_bicycle" depart="1045.31" departLane="best" from="586413266#1" to="563620311#1"/>
    <trip id="bike65" type="bike_bicycle" depart="1061.65" departLane="best" departSpeed="max" from="-563602648" to="183191792#4"/>
    <trip id="bike66" type="bike_bicycle" depart="1077.98" departLane="best" from="565255792#6" to="586413263#1"/>
    <trip id="bike68" type="bike_bicycle" depart="1110.65" departLane="best" from="-225470252#1" to="563602641"/>
    <trip id="bike69" type="bike_bicycle" depart="1126.98" departLane="best" from="563602571" to="-415361887"/>
    <trip id="bike70" type="bike_bicycle" depart="1143.31" departLane="best" from="837196485#2" to="335765986#6"/>
    <trip id="bike71" type="bike_bicycle" depart="1159.64" departLane="best" from="-563602522#0" to="563620380"/>
    <trip id="bike72" type="bike_bicycle" depart="1175.98" departLane="best" departSpeed="max" from="-585994313" to="563602478"/>
    <trip id="bike73" type="bike_bicycle" depart="1192.31" departLane="best" from="-180244637#0" to="563602541"/>
    <trip id="bike74" type="bike_bicycle" depart="1208.64" departLane="best" from="-543914348" to="563620330#0"/>
    <trip id="bike75" type="bike_bicycle" depart="1224.98" departLane="best" from="920874877#1" to="543914349#1"/>
    <trip id="bike77" type="bike_bicycle" depart="1257.64" departLane="best" from="-353960847" to="-563602507#1"/>
    <trip id="bike78" type="bike_bicycle" depart="1273.98" departLane="best" from="-563616188#2" to="415361888"/>
    <trip id="bike79" type="bike_bicycle" depart="1290.31" departLane="best" from="561883409#6" to="563602505#0"/>
    <trip id="bike80" type="bike_bicycle" depart="1306.64" departLane="best" from="-225470252#4" to="-540665092#0"/>
    <trip id="bike81" type="bike_bicycle" depart="1322.97" departLane="best" from="561883409#5" to="586002130#1"/>
    <trip id="bike83" type="bike_bicycle" depart="1355.64" departLane="best" departSpeed="max" from="-563602467" to="561883408#1"/>
    <trip id="bike84" type="bike_bicycle" depart="1371.97" departLane="best" departSpeed="max" from="-561883405" to="-415361890#0"/>
    <trip id="bike85" type="bike_bicycle" depart="1388.31" departLane="best" from="586413254#1" to="372707394"/>
    <trip id="bike86" type="bike_bicycle" depart="1404.64" departLane="best" departSpeed="max" from="-837196483" to="563602673"/>
    <trip id="bike87" type="bike_bicycle" depart="1420.97" departLane="best" from="-372398472" to="-551576183"/>
    <trip id="bike88" type="bike_bicycle" depart="1437.31" departLane="best" from="-276157215#2" to="1177178154"/>
    <trip id="bike89" type="bike_bicycle" depart="1453.64" departLane="best" departSpeed="max" from="-585994313" to="180244639#1"/>
    <trip id="bike90" type="bike_bicycle" depart="1469.97" departLane="best" from="563602459" to="561883401"/>
    <trip id="bike91" type="bike_bicycle" depart="1486.30" departLane="best" from="-9151585#1" to="335765986#4"/>
    <trip id="bike92" type="bike_bicycle" depart="1502.64" departLane="best" departSpeed="max" from="-563620355" to="586077896#1"/>
    <trip id="bike94" type="bike_bicycle" depart="1535.30" departLane="best" from="540665092#4" to="-586080837"/>
    <trip id="bike95" type="bike_bicycle" depart="1551.64" departLane="best" departSpeed="max" from="-585994313" to="563620270#0"/>
    <trip id="bike96" type="bike_bicycle" depart="1567.97" departLane="best" from="563602489#1" to="586413246#13"/>
    <trip id="bike97" type="bike_bicycle" depart="1584.30" departLane="best" from="586413246#16" to="563620356"/>
    <trip id="bike98" type="bike_bicycle" depart="1600.64" departLane="best" from="180244661#1" to="-585997480"/>
    <trip id="bike99" type="bike_bicycle" depart="1616.97" departLane="best" from="920874877#4" to="563620320#0"/>
    <trip id="bike100" type="bike_bicycle" depart="1633.30" departLane="best" from="837196485#0" to="586413246#16"/>
    <trip id="bike101" type="bike_bicycle" depart="1649.63" departLane="best" from="563620318" to="540665092#1"/>
    <trip id="bike102" type="bike_bicycle" depart="1665.97" departLane="best" from="9151585#1" to="-563602486"/>
    <trip id="bike103" type="bike_bicycle" depart="1682.30" departLane="best" from="-563620352#0" to="-183191792#5"/>
    <trip id="bike104" type="bike_bicycle" depart="1698.63" departLane="best" from="-563620320#0" to="9151585#2"/>
    <trip id="bike105" type="bike_bicycle" depart="1714.97" departLane="best" from="-563602522#0" to="563602673"/>
    <trip id="bike106" type="bike_bicycle" depart="1731.30" departLane="best" from="-586413249#0" to="1046388838#1"/>
    <trip id="bike107" type="bike_bicycle" depart="1747.63" departLane="best" from="656443274#4" to="920874877#1"/>
    <trip id="bike108" type="bike_bicycle" depart="1763.97" departLane="best" from="183191774#0" to="-563602526#1"/>
    <trip id="bike109" type="bike_bicycle" depart="1780.30" departLane="best" from="-415361892#1" to="-563620308"/>
    <trip id="bike110" type="bike_bicycle" depart="1796.63" departLane="best" from="837196485#0" to="372725969"/>
    <trip id="bike111" type="bike_bicycle" depart="1812.96" departLane="best" from="-180244639#0" to="563602575#3"/>
    <trip id="bike112" type="bike_bicycle" depart="1829.30" departLane="best" from="-183191745#0" to="415361885"/>
    <trip id="bike113" type="bike_bicycle" depart="1845.63" departLane="best" from="-1046388837#1" to="-563620345#0"/>
    <trip id="bike114" type="bike_bicycle" depart="1861.96" departLane="best" from="-425377800#0" to="656443274#5"/>
    <trip id="bike116" type="bike_bicycle" depart="1894.63" departLane="best" from="-287145656#4" to="-561883409#5"/>
    <trip id="bike117" type="bike_bicycle" depart="1910.96" departLane="best" departSpeed="max" from="-563602463" to="-372715927#0"/>
    <trip id="bike118" type="bike_bicycle" depart="1927.30" departLane="best" from="568382083#1" to="563602647"/>
    <trip id="bike119" type="bike_bicycle" depart="1943.63" departLane="best" from="287145656#3" to="440267648#1"/>
    <trip id="bike120" type="bike_bicycle" depart="1959.96" departLane="best" from="568382083#3" to="415361885"/>
    <trip id="bike121" type="bike_bicycle" depart="1976.29" departLane="best" from="180244626#3" to="-586413246#6"/>
    <trip id="bike122" type="bike_bicycle" depart="1992.63" departLane="best" from="-543921248#1" to="563602522#1"/>
    <trip id="bike123" type="bike_bicycle" depart="2008.96" departLane="best" departSpeed="max" from="-563602467" to="-9120871"/>
    <trip id="bike124" type="bike_bicycle" depart="2025.29" departLane="best" from="-440267648#1" to="563620311#0"/>
    <trip id="bike125" type="bike_bicycle" depart="2041.63" departLane="best" from="-563602656" to="563602635"/>
    <trip id="bike126" type="bike_bicycle" depart="2057.96" departLane="best" from="-225470252#5" to="-180244636#3"/>
    <trip id="bike127" type="bike_bicycle" depart="2074.29" departLane="best" from="-920874877#3" to="-920874877#1"/>
    <trip id="bike128" type="bike_bicycle" depart="2090.63" departLane="best" from="-225470252#6" to="-563602486"/>
    <trip id="bike129" type="bike_bicycle" depart="2106.96" departLane="best" from="-563602522#0" to="586413246#5"/>
    <trip id="bike130" type="bike_bicycle" depart="2123.29" departLane="best" from="565255794" to="565245613"/>
    <trip id="bike131" type="bike_bicycle" depart="2139.62" departLane="best" from="-563620311#0" to="440267648#1"/>
    <trip id="bike132" type="bike_bicycle" depart="2155.96" departLane="best" departSpeed="max" from="563620294" to="563602502"/>
    <trip id="bike133" type="bike_bicycle" depart="2172.29" departLane="best" from="-353960850" to="9151585#3"/>
    <trip id="bike135" type="bike_bicycle" depart="2204.96" departLane="best" from="-563620270#0" to="563620311#0"/>
    <trip id="bike136" type="bike_bicycle" depart="2221.29" departLane="best" from="425380526#1" to="-586413249#1"/>
    <trip id="bike137" type="bike_bicycle" depart="2237.62" departLane="best" from="-372398472" to="-372707395"/>
    <trip id="bike138" type="bike_bicycle" depart="2253.96" departLane="best" from="287145656#4" to="353960847"/>
    <trip id="bike139" type="bike_bicycle" depart="2270.29" departLane="best" from="-563602531" to="425379244"/>
    <trip id="bike140" type="bike_bicycle" depart="2286.62" departLane="best" from="561883409#3" to="561883409#4"/>
    <trip id="bike141" type="bike_bicycle" depart="2302.96" departLane="best" from="415361888" to="-563616188#0"/>
    <trip id="bike142" type="bike_bicycle" depart="2319.29" departLane="best" from="-9151585#4" to="586002130#1"/>
    <trip id="bike143" type="bike_bicycle" depart="2335.62" departLane="best" from="563620321" to="-335765983#1"/>
    <trip id="bike144" type="bike_bicycle" depart="2351.95" departLane="best" departSpeed="max" from="-585994313" to="-563620266"/>
    <trip id="bike145" type="bike_bicycle" depart="2368.29" departLane="best" from="-1046388837#1" to="563602650#1"/>
    <trip id="bike146" type="bike_bicycle" depart="2384.62" departLane="best" from="-415361889#1" to="-563602686#0"/>
    <trip id="bike147" type="bike_bicycle" depart="2400.95" departLane="best" from="-563602505#1" to="-563620280"/>
    <trip id="bike148" type="bike_bicycle" depart="2417.29" departLane="best" from="-563620330#0" to="-1121887301"/>
    <trip id="bike149" type="bike_bicycle" depart="2433.62" departLane="best" from="-225477832#1" to="565255792#2"/>
    <trip id="bike151" type="bike_bicycle" depart="2466.29" departLane="best" from="563620297" to="415361884"/>
    <trip id="bike152" type="bike_bicycle" depart="2482.62" departLane="best" from="-415361889#1" to="-415361887"/>
    <trip id="bike153" type="bike_bicycle" depart="2498.95" departLane="best" departSpeed="max" from="-563602648" to="-563620350"/>
    <trip id="bike154" type="bike_bicycle" depart="2515.28" departLane="best" from="563602675#0" to="563620356"/>
    <trip id="bike155" type="bike_bicycle" depart="2531.62" departLane="best" departSpeed="max" from="586002130#0" to="563602462#0"/>
    <trip id="bike156" type="bike_bicycle" depart="2547.95" departLane="best" from="-563602489#0" to="353960847"/>
    <trip id="bike157" type="bike_bicycle" depart="2564.28" departLane="best" from="-9122002" to="586413259#0"/>
    <trip id="bike158" type="bike_bicycle" depart="2580.62" departLane="best" departSpeed="max" from="-563620356" to="440267648#2"/>
    <trip id="bike159" type="bike_bicycle" depart="2596.95" departLane="best" from="-415361892#1" to="586413246#2"/>
    <trip id="bike160" type="bike_bicycle" depart="2613.28" departLane="best" from="563620380" to="837196486"/>
    <trip id="bike161" type="bike_bicycle" depart="2629.62" departLane="best" from="563616189#1" to="565255792#1"/>
    <trip id="bike162" type="bike_bicycle" depart="2645.95" departLane="best" from="-180244626#0" to="563602568#1"/>
    <trip id="bike163" type="bike_bicycle" depart="2662.28" departLane="best" from="-586413246#15" to="-586413246#3"/>
    <trip id="bike164" type="bike_bicycle" depart="2678.61" departLane="best" from="-563616188#0" to="563620358#1"/>
    <trip id="bike165" type="bike_bicycle" depart="2694.95" departLane="best" from="563616189#1" to="563616188#2"/>
    <trip id="bike166" type="bike_bicycle" depart="2711.28" departLane="best" from="563602653#0" to="-372396764#0"/>
    <trip id="bike167" type="bike_bicycle" depart="2727.61" departLane="best" from="565255792#1" to="563620349"/>
    <trip id="bike168" type="bike_bicycle" depart="2743.95" departLane="best" departSpeed="max" from="-561883408#1" to="563620281#2"/>
    <trip id="bike169" type="bike_bicycle" depart="2760.28" departLane="best" from="656443274#0" to="563620320#0"/>
    <trip id="bike170" type="bike_bicycle" depart="2776.61" departLane="best" from="563602675#0" to="-563602518"/>
    <trip id="bike171" type="bike_bicycle" depart="2792.95" departLane="best" departSpeed="max" from="-1363617808" to="-561883401"/>
    <trip id="bike172" type="bike_bicycle" depart="2809.28" departLane="best" departSpeed="max" from="-563602680" to="563620358#1"/>
    <trip id="bike173" type="bike_bicycle" depart="2825.61" departLane="best" from="837196484" to="563620270#0"/>
    <trip id="bike174" type="bike_bicycle" depart="2841.94" departLane="best" departSpeed="max" from="415361890#0" to="9129472"/>
    <trip id="bike175" type="bike_bicycle" depart="2858.28" departLane="best" from="-9142394#0" to="-287145656#2"/>
    <trip id="bike176" type="bike_bicycle" depart="2874.61" departLane="best" from="586413259#1" to="-372707395"/>
    <trip id="bike177" type="bike_bicycle" depart="2890.94" departLane="best" from="837196485#2" to="-543914346#1"/>
    <trip id="bike178" type="bike_bicycle" depart="2907.28" departLane="best" departSpeed="max" from="737722158#0" to="-563616188#1"/>
    <trip id="bike179" type="bike_bicycle" depart="2923.61" departLane="best" from="563602666#1" to="-1339425865#1"/>
    <trip id="bike180" type="bike_bicycle" depart="2939.94" departLane="best" from="563602459" to="-563620345#0"/>
    <trip id="bike182" type="bike_bicycle" depart="2972.61" departLane="best" from="-563620329#0" to="372715931#0"/>
    <trip id="bike183" type="bike_bicycle" depart="2988.94" departLane="best" from="-563602505#0" to="563602507#1"/>
    <trip id="bike184" type="bike_bicycle" depart="3005.27" departLane="best" from="-1046388837#0" to="586413246#15"/>
    <trip id="bike185" type="bike_bicycle" depart="3021.61" departLane="best" from="180244636#6" to="563602528#0"/>
    <trip id="bike186" type="bike_bicycle" depart="3037.94" departLane="best" from="563602507#0" to="561883409#1"/>
    <trip id="bike188" type="bike_bicycle" depart="3070.61" departLane="best" from="425380527" to="-568382083#3"/>
    <trip id="bike189" type="bike_bicycle" depart="3086.94" departLane="best" from="543914343#2" to="563620335"/>
    <trip id="bike190" type="bike_bicycle" depart="3103.27" departLane="best" from="561883409#5" to="563620311#0"/>
    <trip id="bike191" type="bike_bicycle" depart="3119.61" departLane="best" from="-563602650#0" to="9151585#5"/>
    <trip id="bike192" type="bike_bicycle" depart="3135.94" departLane="best" departSpeed="max" from="-563620355" to="-563620298"/>
    <trip id="bike193" type="bike_bicycle" depart="3152.27" departLane="best" from="-372376369#1" to="1046388837#1"/>
    <trip id="bike194" type="bike_bicycle" depart="3168.60" departLane="best" from="586413259#2" to="-561883409#6"/>
    <trip id="bike195" type="bike_bicycle" depart="3184.94" departLane="best" from="586002131#1" to="425380531"/>
    <trip id="bike196" type="bike_bicycle" depart="3201.27" departLane="best" departSpeed="max" from="-563602639" to="335765986#5"/>
    <trip id="bike197" type="bike_bicycle" depart="3217.60" departLane="best" from="-1020412074" to="-563620282"/>
    <trip id="bike198" type="bike_bicycle" depart="3233.94" departLane="best" from="-9142394#0" to="372725969"/>
    <trip id="bike200" type="bike_bicycle" depart="3266.60" departLane="best" from="-586413246#15" to="-563602486"/>
    <trip id="bike201" type="bike_bicycle" depart="3282.94" departLane="best" departSpeed="max" from="-837196483" to="585994313"/>
    <trip id="bike202" type="bike_bicycle" depart="3299.27" departLane="best" from="563602675#0" to="-540665092#4"/>
    <trip id="bike203" type="bike_bicycle" depart="3315.60" departLane="best" departSpeed="max" from="-258842238#2" to="258842240"/>
    <trip id="bike204" type="bike_bicycle" depart="3331.94" departLane="best" from="415361886#2" to="183191792#6"/>
    <trip id="bike205" type="bike_bicycle" depart="3348.27" departLane="best" from="563620270#1" to="563602634"/>
    <trip id="bike206" type="bike_bicycle" depart="3364.60" departLane="best" from="-440267648#2" to="-563602507#1"/>
    <trip id="bike207" type="bike_bicycle" depart="3380.93" departLane="best" from="-543914346#2" to="-180244626#1"/>
    <trip id="bike208" type="bike_bicycle" depart="3397.27" departLane="best" departSpeed="max" from="-563602481" to="180244652#2"/>
    <trip id="bike211" type="bike_bicycle" depart="3446.27" departLane="best" from="-543914344#1" to="563602484"/>
    <trip id="bike212" type="bike_bicycle" depart="3462.60" departLane="best" from="-9152018#1" to="-563602644"/>
    <trip id="bike213" type="bike_bicycle" depart="3478.93" departLane="best" from="-425377800#0" to="-1046388838#1"/>
    <trip id="bike214" type="bike_bicycle" depart="3495.27" departLane="best" from="563602522#1" to="563602649"/>
    <trip id="bike215" type="bike_bicycle" depart="3511.60" departLane="best" from="287145656#4" to="1046388838#2"/>
    <trip id="bike216" type="bike_bicycle" depart="3527.93" departLane="best" from="440267648#0" to="-656443274#2"/>
    <trip id="bike217" type="bike_bicycle" depart="3544.26" departLane="best" from="1363617807" to="-183191745#0"/>
    <trip id="bike218" type="bike_bicycle" depart="3560.60" departLane="best" from="-563602489#0" to="563620335"/>
    <trip id="bike219" type="bike_bicycle" depart="3576.93" departLane="best" from="586413249#1" to="563620261"/>
    <trip id="bike220" type="bike_bicycle" depart="3593.26" departLane="best" from="-425380531" to="9151585#4"/>
    <trip id="bike221" type="bike_bicycle" depart="3609.60" departLane="best" from="287145656#4" to="586413266#2"/>
    <trip id="bike222" type="bike_bicycle" depart="3625.93" departLane="best" from="568382083#2" to="425380527"/>
    <trip id="bike223" type="bike_bicycle" depart="3642.26" departLane="best" from="561883409#4" to="225485355"/>
    <trip id="bike224" type="bike_bicycle" depart="3658.60" departLane="best" from="563620287#0" to="335765986#5"/>
    <trip id="bike225" type="bike_bicycle" depart="3674.93" departLane="best" from="586413246#15" to="563602575#0"/>
    <trip id="bike226" type="bike_bicycle" depart="3691.26" departLane="best" from="837196485#2" to="372746863"/>
    <trip id="bike227" type="bike_bicycle" depart="3707.59" departLane="best" from="-563602486" to="-543914343#0"/>
    <trip id="bike229" type="bike_bicycle" depart="3740.26" departLane="best" from="-372715931#1" to="-563620264"/>
    <trip id="bike230" type="bike_bicycle" depart="3756.59" departLane="best" departSpeed="max" from="-225485355" to="563620281#1"/>
    <trip id="bike231" type="bike_bicycle" depart="3772.93" departLane="best" from="-563602528#0" to="563620363"/>
    <trip id="bike232" type="bike_bicycle" depart="3789.26" departLane="best" from="180244637#0" to="-415361892#1"/>
    <trip id="bike233" type="bike_bicycle" depart="3805.59" departLane="best" from="-561883410#0" to="563602478"/>
    <trip id="bike234" type="bike_bicycle" depart="3821.93" departLane="best" from="543921250" to="-225470252#4"/>
    <trip id="bike235" type="bike_bicycle" depart="3838.26" departLane="best" from="-563620358#0" to="335765986#0"/>
    <trip id="bike236" type="bike_bicycle" depart="3854.59" departLane="best" from="-568382083#0" to="561883410#0"/>
    <trip id="bike237" type="bike_bicycle" depart="3870.92" departLane="best" from="568382083#3" to="586002130#1"/>
    <trip id="bike238" type="bike_bicycle" depart="3887.26" departLane="best" from="276157215#1" to="563602484"/>
    <trip id="bike239" type="bike_bicycle" depart="3903.59" departLane="best" from="563620352#1" to="563602646"/>
    <trip id="bike240" type="bike_bicycle" depart="3919.92" departLane="best" from="-563620320#1" to="-1046388838#1"/>
    <trip id="bike241" type="bike_bicycle" depart="3936.26" departLane="best" from="-563620271" to="563602636"/>
    <trip id="bike242" type="bike_bicycle" depart="3952.59" departLane="best" from="563620345#0" to="-656443273"/>
    <trip id="bike243" type="bike_bicycle" depart="3968.92" departLane="best" from="563620352#1" to="563602575#2"/>
    <trip id="bike244" type="bike_bicycle" depart="3985.26" departLane="best" from="180244652#0" to="425377800#1"/>
    <trip id="bike245" type="bike_bicycle" depart="4001.59" departLane="best" departSpeed="max" from="-561883408#1" to="-563602500"/>
    <trip id="bike246" type="bike_bicycle" depart="4017.92" departLane="best" from="-586413246#1" to="180244632#2"/>
    <trip id="bike247" type="bike_bicycle" depart="4034.25" departLane="best" from="-563616188#0" to="561883410#1"/>
    <trip id="bike248" type="bike_bicycle" depart="4050.59" departLane="best" departSpeed="max" from="-563620356" to="540665092#0"/>
    <trip id="bike249" type="bike_bicycle" depart="4066.92" departLane="best" from="-656443274#6" to="-415361887"/>
    <trip id="bike250" type="bike_bicycle" depart="4083.25" departLane="best" from="-563602576" to="-180244626#3"/>
    <trip id="bike251" type="bike_bicycle" depart="4099.59" departLane="best" departSpeed="max" from="-563620337" to="372396764#4"/>
    <trip id="bike252" type="bike_bicycle" depart="4115.92" departLane="best" from="-180244626#1" to="543914344#1"/>
    <trip id="bike253" type="bike_bicycle" depart="4132.25" departLane="best" departSpeed="max" from="-372707394" to="-180244636#6"/>
    <trip id="bike254" type="bike_bicycle" depart="4148.59" departLane="best" departSpeed="max" from="-180244639#2" to="-656443274#4"/>
    <trip id="bike255" type="bike_bicycle" depart="4164.92" departLane="best" from="-561883403" to="-568382083#0"/>
    <trip id="bike256" type="bike_bicycle" depart="4181.25" departLane="best" from="563602543" to="-656443274#4"/>
    <trip id="bike257" type="bike_bicycle" depart="4197.58" departLane="best" from="563602524" to="563620312"/>