<?xml version="1.0" encoding="UTF-8"?>

<!-- generated on 2025-03-02 09:02:43.317742 by osmWebWizard.py v1_21_0+0000-d7b3b481c43
<configuration>
    <net-file value="C:\Users\evans\Sumo\2025-03-02-09-02-35\osm.net.xml.gz"/>
    <output-trip-file value="C:\Users\evans\Sumo\2025-03-02-09-02-35\osm.passenger.trips.xml"/>
    <route-file value="C:\Users\evans\Sumo\2025-03-02-09-02-35\osm.passenger.rou.xml"/>
    <prefix value="veh"/>
    <trip-attributes value="departLane=&quot;best&quot;"/>
    <fringe-start-attributes value="departSpeed=&quot;max&quot;"/>
    <vehicle-class value="passenger"/>
    <lanes value="True"/>
    <fringe-factor value="5"/>
    <allow-fringe.min-length value="1000.0"/>
    <via-edge-types value="highway.motorway,highway.motorway_link,highway.trunk_link,highway.primary_link,highway.secondary_link,highway.tertiary_link"/>
    <min-distance value="300.0"/>
    <min-distance.fringe value="10.0"/>
    <remove-loops value="True"/>
    <validate value="True"/>
    <end value="86400.0"/>
    <insertion-density value="12.0"/>
</configuration>
-->

<!-- generated on 2025-03-02 09:02:43 by Eclipse SUMO duarouter Version 1.21.0
<duarouterConfiguration xmlns:xsi="http://www.w3.org/2001/XMLSchema-instance" xsi:noNamespaceSchemaLocation="http://sumo.dlr.de/xsd/duarouterConfiguration.xsd">

    <input>
        <net-file value="C:\Users\evans\Sumo\2025-03-02-09-02-35\osm.net.xml.gz"/>
        <route-files value="C:\Users\evans\Sumo\2025-03-02-09-02-35\osm.passenger.trips.xml"/>
    </input>

    <output>
        <output-file value="C:\Users\evans\Sumo\2025-03-02-09-02-35\osm.passenger.trips.xml.tmp"/>
        <alternatives-output value="NUL"/>
        <write-trips value="true"/>
    </output>

    <processing>
        <remove-loops value="true"/>
    </processing>

    <time>
        <begin value="0.0"/>
        <end value="86400.0"/>
    </time>

    <report>
        <no-warnings value="true"/>
        <ignore-errors value="true"/>
        <no-step-log value="true"/>
    </report>

</duarouterConfiguration>
-->

<routes xmlns:xsi="http://www.w3.org/2001/XMLSchema-instance" xsi:noNamespaceSchemaLocation="http://sumo.dlr.de/xsd/routes_file.xsd">
    <vType id="veh_passenger" vClass="passenger"/>
    <trip id="veh0" type="veh_passenger" depart="0.00" departLane="best" departSpeed="max" from="533664762" to="1339425865#1"/>
    <trip id="veh1" type="veh_passenger" depart="20.38" departLane="best" from="586413249#1" to="-568382083#3"/>
    <trip id="veh2" type="veh_passenger" depart="40.77" departLane="best" departSpeed="max" from="586002130#0" to="-540665092#2"/>
    <trip id="veh3" type="veh_passenger" depart="61.15" departLane="best" departSpeed="max" from="631653305" to="276157215#4"/>
    <trip id="veh5" type="veh_passenger" depart="101.92" departLane="best" from="586077896#1" to="180244639#2"/>
    <trip id="veh6" type="veh_passenger" depart="122.30" departLane="best" from="180244636#0" to="-551576182"/>
    <trip id="veh7" type="veh_passenger" depart="142.68" departLane="best" departSpeed="max" from="533664762" to="273902603"/>
    <trip id="veh8" type="veh_passenger" depart="163.07" departLane="best" from="586077896#1" to="276157215#2"/>
    <trip id="veh9" type="veh_passenger" depart="183.45" departLane="best" from="586413246#2" to="-1339425865#0"/>
    <trip id="veh10" type="veh_passenger" depart="203.83" departLane="best" from="586413246#17" to="551574176#0"/>
    <trip id="veh11" type="veh_passenger" depart="224.22" departLane="best" from="565255792#4" to="276157215#4"/>
    <trip id="veh12" type="veh_passenger" depart="244.60" departLane="best" from="586413246#18" to="-551576182"/>
    <trip id="veh13" type="veh_passenger" depart="264.99" departLane="best" from="586413256" to="-276157217"/>
    <trip id="veh14" type="veh_passenger" depart="285.37" departLane="best" departSpeed="max" from="631653305" to="276157215#0"/>
    <trip id="veh15" type="veh_passenger" depart="305.75" departLane="best" from="586077896#3" to="-586413249#0"/>
    <trip id="veh16" type="veh_passenger" depart="326.14" departLane="best" from="-276157215#1" to="-586077896#0"/>
    <trip id="veh18" type="veh_passenger" depart="366.90" departLane="best" from="-586413246#6" to="-656443274#3"/>
    <trip id="veh19" type="veh_passenger" depart="387.29" departLane="best" departSpeed="max" from="533664762" to="276157215#5"/>
    <trip id="veh20" type="veh_passenger" depart="407.67" departLane="best" from="-540665092#2" to="-551576182"/>
    <trip id="veh21" type="veh_passenger" depart="428.05" departLane="best" from="-9151585#3" to="-287145656#3"/>
    <trip id="veh22" type="veh_passenger" depart="448.44" departLane="best" departSpeed="max" from="423654395" to="540665092#3"/>
    <trip id="veh23" type="veh_passenger" depart="468.82" departLane="best" from="586077896#3" to="-180244636#3"/>
    <trip id="veh24" type="veh_passenger" depart="489.20" departLane="best" from="656443274#2" to="-586413246#16"/>
    <trip id="veh25" type="veh_passenger" depart="509.59" departLane="best" from="-586413246#5" to="-586077896#3"/>
    <trip id="veh26" type="veh_passenger" depart="529.97" departLane="best" departSpeed="max" from="423654395" to="-586413246#14"/>
    <trip id="veh27" type="veh_passenger" depart="550.35" departLane="best" departSpeed="max" from="423654395" to="565255792#7"/>
    <trip id="veh28" type="veh_passenger" depart="570.74" departLane="best" from="1315084524" to="-568382083#1"/>
    <trip id="veh29" type="veh_passenger" depart="591.12" departLane="best" from="-9152018#0" to="180244639#2"/>
    <trip id="veh30" type="veh_passenger" depart="611.50" departLane="best" from="-276157215#3" to="180244637#1"/>
    <trip id="veh31" type="veh_passenger" depart="631.89" departLane="best" from="-276157215#6" to="-287145656#2"/>
    <trip id="veh32" type="veh_passenger" depart="652.27" departLane="best" from="586413246#1" to="-656443275"/>
    <trip id="veh33" type="veh_passenger" depart="672.65" departLane="best" from="180244652#0" to="-656443274#3"/>
    <trip id="veh34" type="veh_passenger" depart="693.04" departLane="best" from="-9152018#0" to="273902603"/>
    <trip id="veh35" type="veh_passenger" depart="713.42" departLane="best" from="656443275" to="586413246#3"/>
    <trip id="veh36" type="veh_passenger" depart="733.81" departLane="best" from="-1339425865#0" to="551574176#0"/>
    <trip id="veh37" type="veh_passenger" depart="754.19" departLane="best" from="-586413246#6" to="-287145656#4"/>
    <trip id="veh38" type="veh_passenger" depart="774.57" departLane="best" from="-276157217" to="9151585#1"/>
    <trip id="veh39" type="veh_passenger" depart="794.96" departLane="best" from="180244652#0" to="-656443274#5"/>
    <trip id="veh40" type="veh_passenger" depart="815.34" departLane="best" departSpeed="max" from="631653305" to="-586413246#14"/>
    <trip id="veh41" type="veh_passenger" depart="835.72" departLane="best" from="-276157215#6" to="-540665092#2"/>
    <trip id="veh42" type="veh_passenger" depart="856.11" departLane="best" from="656443274#0" to="586413246#8"/>
    <trip id="veh43" type="veh_passenger" depart="876.49" departLane="best" from="531094133#1" to="-287145656#4"/>
    <trip id="veh45" type="veh_passenger" depart="917.26" departLane="best" from="1315084524" to="-631653305"/>
    <trip id="veh46" type="veh_passenger" depart="937.64" departLane="best" departSpeed="max" from="631653305" to="586077896#3"/>
    <trip id="veh47" type="veh_passenger" depart="958.02" departLane="best" from="-276157215#2" to="-180244636#3"/>
    <trip id="veh48" type="veh_passenger" depart="978.41" departLane="best" from="-276157215#0" to="565245613"/>
    <trip id="veh49" type="veh_passenger" depart="998.79" departLane="best" from="-276157215#2" to="273902603"/>
    <trip id="veh50" type="veh_passenger" depart="1019.17" departLane="best" from="-586413246#5" to="586413249#1"/>
    <trip id="veh52" type="veh_passenger" depart="1059.94" departLane="best" from="-565255794" to="-631653305"/>
    <trip id="veh54" type="veh_passenger" depart="1100.71" departLane="best" from="180244636#4" to="180244652#2"/>
    <trip id="veh55" type="veh_passenger" depart="1121.09" departLane="best" from="287145656#0" to="-568382083#3"/>
    <trip id="veh56" type="veh_passenger" depart="1141.47" departLane="best" from="656443274#5" to="276157215#2"/>
    <trip id="veh57" type="veh_passenger" depart="1161.86" departLane="best" from="586077896#3" to="-568382083#1"/>
    <trip id="veh58" type="veh_passenger" depart="1182.24" departLane="best" from="-276157215#0" to="-287145656#2"/>
    <trip id="veh59" type="veh_passenger" depart="1202.63" departLane="best" departSpeed="max" from="631653305" to="276157215#1"/>
    <trip id="veh60" type="veh_passenger" depart="1223.01" departLane="best" from="-586413246#0" to="-540665092#0"/>
    <trip id="veh61" type="veh_passenger" depart="1243.39" departLane="best" from="-586077896#0" to="-287145656#2"/>
    <trip id="veh62" type="veh_passenger" depart="1263.78" departLane="best" from="-276157215#2" to="-565255794"/>
    <trip id="veh63" type="veh_passenger" depart="1284.16" departLane="best" from="586413246#18" to="-540665092#4"/>
    <trip id="veh65" type="veh_passenger" depart="1324.93" departLane="best" departSpeed="max" from="586002130#0" to="-540665092#1"/>
    <trip id="veh66" type="veh_passenger" depart="1345.31" departLane="best" from="1315084524" to="-656443273"/>
    <trip id="veh67" type="veh_passenger" depart="1365.69" departLane="best" departSpeed="max" from="631653305" to="586077896#3"/>
    <trip id="veh68" type="veh_passenger" depart="1386.08" departLane="best" from="551576182" to="9152018#1"/>
    <trip id="veh70" type="veh_passenger" depart="1426.84" departLane="best" from="586413246#15" to="-656443274#1"/>
    <trip id="veh71" type="veh_passenger" depart="1447.23" departLane="best" from="180244637#0" to="586413246#4"/>
    <trip id="veh72" type="veh_passenger" depart="1467.61" departLane="best" from="287145656#4" to="180244639#1"/>
    <trip id="veh73" type="veh_passenger" depart="1487.99" departLane="best" from="-9152018#1" to="-586077896#3"/>
    <trip id="veh74" type="veh_passenger" depart="1508.38" departLane="best" from="586413267#1" to="-540665092#0"/>
    <trip id="veh76" type="veh_passenger" depart="1549.14" departLane="best" from="1315084524" to="180244652#3"/>
    <trip id="veh77" type="veh_passenger" depart="1569.53" departLane="best" departSpeed="max" from="-9142394#1" to="9151585#2"/>
    <trip id="veh78" type="veh_passenger" depart="1589.91" departLane="best" from="-586413246#5" to="-565255794"/>
    <trip id="veh79" type="veh_passenger" depart="1610.30" departLane="best" from="180244652#2" to="-656443275"/>
    <trip id="veh80" type="veh_passenger" depart="1630.68" departLane="best" from="656443274#5" to="9151585#6"/>
    <trip id="veh82" type="veh_passenger" depart="1671.45" departLane="best" from="656443275" to="276157215#0"/>
    <trip id="veh83" type="veh_passenger" depart="1691.83" departLane="best" from="287145656#3" to="565245613"/>
    <trip id="veh84" type="veh_passenger" depart="1712.21" departLane="best" departSpeed="max" from="-180244639#2" to="276157215#1"/>
    <trip id="veh85" type="veh_passenger" depart="1732.60" departLane="best" from="276157217" to="586413246#16"/>
    <trip id="veh87" type="veh_passenger" depart="1773.36" departLane="best" from="-276157215#1" to="-540665092#3"/>
    <trip id="veh88" type="veh_passenger" depart="1793.75" departLane="best" departSpeed="max" from="423654395" to="540665092#1"/>
    <trip id="veh89" type="veh_passenger" depart="1814.13" departLane="best" from="180244628" to="-276157224#1"/>
    <trip id="veh90" type="veh_passenger" depart="1834.51" departLane="best" departSpeed="max" from="631653305" to="586077896#3"/>
    <trip id="veh91" type="veh_passenger" depart="1854.90" departLane="best" departSpeed="max" from="423654395" to="-276157217"/>
    <trip id="veh93" type="veh_passenger" depart="1895.66" departLane="best" departSpeed="max" from="276157224#0" to="-656443274#3"/>
    <trip id="veh94" type="veh_passenger" depart="1916.05" departLane="best" from="568382083#1" to="551574176#0"/>
    <trip id="veh95" type="veh_passenger" depart="1936.43" departLane="best" from="-586413246#1" to="-656443274#4"/>
    <trip id="veh96" type="veh_passenger" depart="1956.81" departLane="best" from="-540665092#3" to="-631653305"/>
    <trip id="veh97" type="veh_passenger" depart="1977.20" departLane="best" from="656443274#2" to="565245613"/>
    <trip id="veh98" type="veh_passenger" depart="1997.58" departLane="best" from="-276157215#0" to="-1339425865#0"/>
    <trip id="veh100" type="veh_passenger" depart="2038.35" departLane="best" from="-586413246#5" to="-656443274#3"/>
    <trip id="veh101" type="veh_passenger" depart="2058.73" departLane="best" departSpeed="max" from="533664762" to="9151585#2"/>
    <trip id="veh102" type="veh_passenger" depart="2079.12" departLane="best" from="586413246#6" to="-631653305"/>
    <trip id="veh103" type="veh_passenger" depart="2099.50" departLane="best" from="287145656#3" to="-276157224#1"/>
    <trip id="veh104" type="veh_passenger" depart="2119.88" departLane="best" from="-276157215#6" to="273902603"/>
    <trip id="veh105" type="veh_passenger" depart="2140.27" departLane="best" from="-586413249#0" to="276157215#4"/>
    <trip id="veh107" type="veh_passenger" depart="2181.03" departLane="best" departSpeed="max" from="533664762" to="-586413246#14"/>
    <trip id="veh108" type="veh_passenger" depart="2201.42" departLane="best" from="-276157215#4" to="-656443273"/>
    <trip id="veh109" type="veh_passenger" depart="2221.80" departLane="best" from="565255792#4" to="276157215#5"/>
    <trip id="veh111" type="veh_passenger" depart="2262.57" departLane="best" from="1315084524" to="565255792#2"/>
    <trip id="veh112" type="veh_passenger" depart="2282.95" departLane="best" departSpeed="max" from="533664762" to="-586413246#13"/>
    <trip id="veh113" type="veh_passenger" depart="2303.33" departLane="best" departSpeed="max" from="586002130#0" to="273902603"/>
    <trip id="veh114" type="veh_passenger" depart="2323.72" departLane="best" from="180244628" to="-1339425865#0"/>
    <trip id="veh115" type="veh_passenger" depart="2344.10" departLane="best" from="-276157215#1" to="586413259#1"/>
    <trip id="veh116" type="veh_passenger" depart="2364.48" departLane="best" from="586413259#1" to="276157215#1"/>
    <trip id="veh118" type="veh_passenger" depart="2405.25" departLane="best" from="656443274#2" to="565255792#7"/>
    <trip id="veh119" type="veh_passenger" depart="2425.63" departLane="best" from="586413246#12" to="586413246#3"/>
    <trip id="veh121" type="veh_passenger" depart="2466.40" departLane="best" from="-586413246#15" to="276157215#6"/>
    <trip id="veh122" type="veh_passenger" depart="2486.78" departLane="best" from="1339425865#0" to="-276157217"/>
    <trip id="veh124" type="veh_passenger" depart="2527.55" departLane="best" departSpeed="max" from="631653305" to="-9129472"/>
    <trip id="veh125" type="veh_passenger" depart="2547.94" departLane="best" from="-586413246#3" to="586413259#0"/>
    <trip id="veh126" type="veh_passenger" depart="2568.32" departLane="best" from="180244636#0" to="565245613"/>
    <trip id="veh127" type="veh_passenger" depart="2588.70" departLane="best" from="586413246#15" to="586413246#5"/>
    <trip id="veh128" type="veh_passenger" depart="2609.09" departLane="best" from="586413246#3" to="586413246#15"/>
    <trip id="veh129" type="veh_passenger" depart="2629.47" departLane="best" from="586077896#3" to="-276157224#1"/>
    <trip id="veh130" type="veh_passenger" depart="2649.85" departLane="best" departSpeed="max" from="631653305" to="586413246#2"/>
    <trip id="veh131" type="veh_passenger" depart="2670.24" departLane="best" from="-276157215#0" to="-631653305"/>
    <trip id="veh132" type="veh_passenger" depart="2690.62" departLane="best" from="586413246#12" to="-586077896#0"/>
    <trip id="veh133" type="veh_passenger" depart="2711.00" departLane="best" from="656443274#4" to="586413246#5"/>
    <trip id="veh134" type="veh_passenger" depart="2731.39" departLane="best" from="656443274#6" to="-586413246#4"/>
    <trip id="veh135" type="veh_passenger" depart="2751.77" departLane="best" departSpeed="max" from="533664762" to="656443274#5"/>
    <trip id="veh136" type="veh_passenger" depart="2772.15" departLane="best" from="656443274#3" to="-276157224#1"/>
    <trip id="veh137" type="veh_passenger" depart="2792.54" departLane="best" from="656443275" to="540665092#2"/>
    <trip id="veh138" type="veh_passenger" depart="2812.92" departLane="best" from="656443274#6" to="-586413246#15"/>
    <trip id="veh140" type="veh_passenger" depart="2853.69" departLane="best" from="-9151585#2" to="-276157215#0"/>
    <trip id="veh141" type="veh_passenger" depart="2874.07" departLane="best" from="586413246#17" to="551574176#0"/>
    <trip id="veh142" type="veh_passenger" depart="2894.45" departLane="best" from="1315084524" to="-656443274#2"/>
    <trip id="veh143" type="veh_passenger" depart="2914.84" departLane="best" departSpeed="max" from="586002130#0" to="-540665092#1"/>
    <trip id="veh144" type="veh_passenger" depart="2935.22" departLane="best" from="656443275" to="276157215#1"/>
    <trip id="veh145" type="veh_passenger" depart="2955.60" departLane="best" from="-540665092#2" to="-631653305"/>
    <trip id="veh146" type="veh_passenger" depart="2975.99" departLane="best" from="656443274#2" to="-586413246#14"/>
    <trip id="veh147" type="veh_passenger" depart="2996.37" departLane="best" from="568382083#0" to="-631653305"/>
    <trip id="veh148" type="veh_passenger" depart="3016.76" departLane="best" from="1315084524" to="-631653305"/>
    <trip id="veh149" type="veh_passenger" depart="3037.14" departLane="best" from="656443273" to="276157215#6"/>
    <trip id="veh150" type="veh_passenger" depart="3057.52" departLane="best" from="1315084524" to="586413246#8"/>
    <trip id="veh151" type="veh_passenger" depart="3077.91" departLane="best" from="180244636#0" to="276157215#1"/>
    <trip id="veh153" type="veh_passenger" depart="3118.67" departLane="best" from="-276157215#2" to="-656443273"/>
    <trip id="veh154" type="veh_passenger" depart="3139.06" departLane="best" from="586413246#12" to="-540665092#1"/>
    <trip id="veh155" type="veh_passenger" depart="3159.44" departLane="best" from="-276157215#2" to="180244652#0"/>
    <trip id="veh156" type="veh_passenger" depart="3179.82" departLane="best" from="-586413246#6" to="565245613"/>
    <trip id="veh157" type="veh_passenger" depart="3200.21" departLane="best" from="586413246#12" to="169152446#0"/>
    <trip id="veh158" type="veh_passenger" depart="3220.59" departLane="best" from="586413267#1" to="276157215#2"/>
    <trip id="veh159" type="veh_passenger" depart="3240.97" departLane="best" from="-1339425865#1" to="-287145656#2"/>
    <trip id="veh160" type="veh_passenger" depart="3261.36" departLane="best" from="-276157215#5" to="-586077896#3"/>
    <trip id="veh161" type="veh_passenger" depart="3281.74" departLane="best" from="586002130#1" to="565255792#1"/>
    <trip id="veh162" type="veh_passenger" depart="3302.12" departLane="best" from="-276157215#6" to="-656443275"/>
    <trip id="veh163" type="veh_passenger" depart="3322.51" departLane="best" departSpeed="max" from="276157224#0" to="180244639#0"/>
    <trip id="veh164" type="veh_passenger" depart="3342.89" departLane="best" from="-180244652#2" to="586002131#0"/>
    <trip id="veh165" type="veh_passenger" depart="3363.27" departLane="best" from="540665092#2" to="9151585#3"/>
    <trip id="veh166" type="veh_passenger" depart="3383.66" departLane="best" departSpeed="max" from="631653305" to="276157215#6"/>
    <trip id="veh167" type="veh_passenger" depart="3404.04" departLane="best" from="568382083#0" to="180244639#2"/>
    <trip id="veh168" type="veh_passenger" depart="3424.42" departLane="best" from="586413256" to="273902603"/>
    <trip id="veh169" type="veh_passenger" depart="3444.81" departLane="best" from="-276157215#2" to="-586413246#12"/>
    <trip id="veh170" type="veh_passenger" depart="3465.19" departLane="best" from="586413246#14" to="-287145656#3"/>
    <trip id="veh171" type="veh_passenger" depart="3485.58" departLane="best" departSpeed="max" from="533664762" to="-586413246#2"/>
    <trip id="veh172" type="veh_passenger" depart="3505.96" departLane="best" from="-276157215#1" to="586413246#8"/>
    <trip id="veh173" type="veh_passenger" depart="3526.34" departLane="best" from="586413254#1" to="-631653305"/>
    <trip id="veh174" type="veh_passenger" depart="3546.73" departLane="best" from="565255794" to="276157215#0"/>
    <trip id="veh176" type="veh_passenger" depart="3587.49" departLane="best" from="656443274#6" to="565245613"/>
    <trip id="veh177" type="veh_passenger" depart="3607.88" departLane="best" from="287145656#4" to="276157215#4"/>
    <trip id="veh178" type="veh_passenger" depart="3628.26" departLane="best" from="586077896#1" to="-568382083#1"/>
    <trip id="veh179" type="veh_passenger" depart="3648.64" departLane="best" from="1315084524" to="-540665092#0"/>
    <trip id="veh180" type="veh_passenger" depart="3669.03" departLane="best" departSpeed="max" from="533664762" to="-180244636#0"/>
    <trip id="veh181" type="veh_passenger" depart="3689.41" departLane="best" from="-9151585#6" to="273902603"/>
    <trip id="veh182" type="veh_passenger" depart="3709.79" departLane="best" from="180244636#1" to="-287145656#4"/>
    <trip id="veh183" type="veh_passenger" depart="3730.18" departLane="best" from="-180244639#1" to="-656443274#3"/>
    <trip id="veh184" type="veh_passenger" depart="3750.56" departLane="best" from="-586077896#0" to="-631653305"/>
    <trip id="veh187" type="veh_passenger" depart="3811.71" departLane="best" from="-586413246#16" to="276157215#3"/>
    <trip id="veh188" type="veh_passenger" depart="3832.09" departLane="best" from="-9152018#1" to="-656443274#0"/>
    <trip id="veh189" type="veh_passenger" depart="3852.48" departLane="best" from="540665092#0" to="565245613"/>
    <trip id="veh190" type="veh_passenger" depart="3872.86" departLane="best" from="-1339425865#1" to="-287145656#4"/>
    <trip id="veh191" type="veh_passenger" depart="3893.24" departLane="best" from="287145656#3" to="540665092#0"/>
    <trip id="veh192" type="veh_passenger" depart="3913.63" departLane="best" departSpeed="max" from="423654395" to="-568382083#0"/>
    <trip id="veh193" type="veh_passenger" depart="3934.01" departLane="best" from="540665092#1" to="276157215#5"/>
    <trip id="veh194" type="veh_passenger" depart="3954.40" departLane="best" from="586413246#7" to="-656443274#6"/>
    <trip id="veh195" type="veh_passenger" depart="3974.78" departLane="best" from="-276157215#6" to="-180244636#0"/>
    <trip id="veh197" type="veh_passenger" depart="4015.55" departLane="best" from="586413259#3" to="-287145656#2"/>
    <trip id="veh198" type="veh_passenger" depart="4035.93" departLane="best" from="-276157215#5" to="565255792#2"/>
    <trip id="veh199" type="veh_passenger" depart="4056.31" departLane="best" departSpeed="max" from="631653305" to="276157215#4"/>
    <trip id="veh200" type="veh_passenger" depart="4076.70" departLane="best" from="287145656#0" to="9151585#1"/>
    <trip id="veh201" type="veh_passenger" depart="4097.08" departLane="best" from="180244636#0" to="-656443274#2"/>
    <trip id="veh202" type="veh_passenger" depart="4117.46" departLane="best" from="276157217" to="-656443273"/>
    <trip id="veh203" type="veh_passenger" depart="4137.85" departLane="best" from="586413267#1" to="-586077896#1"/>
    <trip id="veh204" type="veh_passenger" depart="4158.23" departLane="best" from="-276157215#6" to="-656443274#6"/>
    <trip id="veh205" type="veh_passenger" depart="4178.61" departLane="best" departSpeed="max" from="533664762" to="586077896#3"/>
    <trip id="veh206" type="veh_passenger" depart="4199.00" departLane="best" from="565255794" to="9151585#2"/>
    <trip id="veh207" type="veh_passenger" depart="4219.38" departLane="best" departSpeed="max" from="586002130#0" to="-656443274#6"/>
    <trip id="veh208" type="veh_passenger" depart="4239.76" departLane="best" from="-586413246#8" to="586002131#2"/>
    <trip id="veh209" type="veh_passenger" depart="4260.15" departLane="best" from="287145656#3" to="-180244636#2"/>
    <trip id="veh210" type="veh_passenger" depart="4280.53" departLane="best" from="180244636#3" to="-551576182"/>
    <trip id="veh211" type="veh_passenger" depart="4300.91" departLane="best" from="586413246#7" to="586413246#16"/>
    <trip id="veh212" type="veh_passenger" depart="4321.30" departLane="best" from="586413256" to="276157215#4"/>
    <trip id="veh213" type="veh_passenger" depart="4341.68" departLane="best" departSpeed="max" from="631653305" to="586077896#3"/>
    <trip id="veh214" type="veh_passenger" depart="4362.06" departLane="best" from="276157215#0" to="276157215#5"/>
    <trip id="veh215" type="veh_passenger" depart="4382.45" departLane="best" departSpeed="max" from="-9142394#1" to="-180244636#1"/>
    <trip id="veh216" type="veh_passenger" depart="4402.83" departLane="best" departSpeed="max" from="631653305" to="540665092#3"/>
    <trip id="veh218" type="veh_passenger" depart="4443.60" departLane="best" from="565255792#5" to="586413246#3"/>
    <trip id="veh219" type="veh_passenger" depart="4463.98" departLane="best" from="-276157215#2" to="551574176#0"/>
    <trip id="veh220" type="veh_passenger" depart="4484.37" departLane="best" from="-276157215#4" to="565245613"/>
    <trip id="veh221" type="veh_passenger" depart="4504.75" departLane="best" from="586413259#3" to="-287145656#4"/>
    <trip id="veh222" type="veh_passenger" depart="4525.13" departLane="best" from="-276157215#5" to="-568382083#3"/>
    <trip id="veh223" type="veh_passenger" depart="4545.52" departLane="best" from="-276157215#4" to="-568382083#2"/>
    <trip id="veh224" type="veh_passenger" depart="4565.90" departLane="best" from="565255792#1" to="-631653305"/>
    <trip id="veh225" type="veh_passenger" depart="4586.28" departLane="best" from="586413266#1" to="-586413246#17"/>
    <trip id="veh226" type="veh_passenger" depart="4606.67" departLane="best" from="-586413246#16" to="-276157224#1"/>
    <trip id="veh227" type="veh_passenger" depart="4627.05" departLane="best" from="551576182" to="-276157224#1"/>
    <trip id="veh229" type="veh_passenger" depart="4667.82" departLane="best" from="-276157215#4" to="551574176#0"/>
    <trip id="veh230" type="veh_passenger" depart="4688.20" departLane="best" from="9129472" to="273902603"/>
    <trip id="veh231" type="veh_passenger" depart="4708.58" departLane="best" from="656443273" to="276157215#6"/>
    <trip id="veh232" type="veh_passenger" depart="4728.97" departLane="best" from="287145656#0" to="-586413246#2"/>
    <trip id="veh233" type="veh_passenger" depart="4749.35" departLane="best" from="565255792#3" to="-276157224#1"/>
    <trip id="veh234" type="veh_passenger" depart="4769.73" departLane="best" departSpeed="max" from="631653305" to="-180244636#5"/>
    <trip id="veh235" type="veh_passenger" depart="4790.12" departLane="best" departSpeed="max" from="631653305" to="276157215#0"/>
    <trip id="veh236" type="veh_passenger" depart="4810.50" departLane="best" from="276157215#1" to="9151585#4"/>
    <trip id="veh237" type="veh_passenger" depart="4830.89" departLane="best" from="540665092#4" to="180244639#1"/>
    <trip id="veh238" type="veh_passenger" depart="4851.27" departLane="best" from="656443274#3" to="-586080837"/>
    <trip id="veh239" type="veh_passenger" depart="4871.65" departLane="best" from="586413246#8" to="-656443274#5"/>
    <trip id="veh240" type="veh_passenger" depart="4892.04" departLane="best" from="-276157215#1" to="-287145656#2"/>
    <trip id="veh241" type="veh_passenger" depart="4912.42" departLane="best" departSpeed="max" from="-180244639#2" to="-287145656#4"/>
    <trip id="veh242" type="veh_passenger" depart="4932.80" departLane="best" from="-9151585#6" to="-276157224#1"/>
    <trip id="veh243" type="veh_passenger" depart="4953.19" departLane="best" from="586077896#0" to="276157215#5"/>
    <trip id="veh244" type="veh_passenger" depart="4973.57" departLane="best" from="586413246#1" to="-586077896#0"/>
    <trip id="veh245" type="veh_passenger" depart="4993.95" departLane="best" from="-9151585#4" to="-631653305"/>
    <trip id="veh246" type="veh_passenger" depart="5014.34" departLane="best" departSpeed="max" from="533664762" to="276157215#5"/>
    <trip id="veh247" type="veh_passenger" depart="5034.72" departLane="best" departSpeed="max" from="586002130#0" to="-656443274#4"/>
    <trip id="veh248" type="veh_passenger" depart="5055.10" departLane="best" from="-540665092#1" to="-287145656#4"/>
    <trip id="veh249" type="veh_passenger" depart="5075.49" departLane="best" from="540665092#2" to="276157215#2"/>
    <trip id="veh250" type="veh_passenger" depart="5095.87" departLane="best" departSpeed="max" from="423654395" to="-586413249#1"/>
    <trip id="veh251" type="veh_passenger" depart="5116.25" departLane="best" from="-586077896#3" to="551574176#0"/>
    <trip id="veh252" type="veh_passenger" depart="5136.64" departLane="best" from="565255792#6" to="-1315084524"/>
    <trip id="veh253" type="veh_passenger" depart="5157.02" departLane="best" from="-540665092#1" to="-631653305"/>
    <trip id="veh254" type="veh_passenger" depart="5177.40" departLane="best" from="586002130#1" to="273902603"/>
    <trip id="veh255" type="veh_passenger" depart="5197.79" departLane="best" from="656443274#0" to="-276157224#1"/>
    <trip id="veh256" type="veh_passenger" depart="5218.17" departLane="best" from="656443274#4" to="180244639#1"/>
    <trip id="veh257" type="veh_passenger" depart="5238.55" departLane="best" from="-180244637#0" to="9151585#0"/>