<?xml version="1.0" encoding="UTF-8"?>

<!-- generated on 2025-02-26 16:48:58.132400 by osmWebWizard.py v1_21_0+0000-d7b3b481c43
<configuration>
    <net-file value="C:\Users\evans\Sumo\2025-02-26-16-48-44\osm.net.xml.gz"/>
    <output-trip-file value="C:\Users\evans\Sumo\2025-02-26-16-48-44\osm.bicycle.trips.xml"/>
    <route-file value="C:\Users\evans\Sumo\2025-02-26-16-48-44\osm.bicycle.rou.xml"/>
    <prefix value="bike"/>
    <trip-attributes value="departLane=&quot;best&quot;"/>
    <fringe-start-attributes value="departSpeed=&quot;max&quot;"/>
    <vehicle-class value="bicycle"/>
    <fringe-factor value="2"/>
    <vclass value="bicycle"/>
    <via-edge-types value="highway.motorway,highway.motorway_link,highway.trunk_link,highway.primary_link,highway.secondary_link,highway.tertiary_link"/>
    <max-distance value="8000.0"/>
    <remove-loops value="True"/>
    <validate value="True"/>
    <end value="86400.0"/>
    <insertion-density value="6.0"/>
</configuration>
-->

<!-- generated on 2025-02-26 16:48:55 by Eclipse SUMO duarouter Version 1.21.0
<duarouterConfiguration xmlns:xsi="http://www.w3.org/2001/XMLSchema-instance" xsi:noNamespaceSchemaLocation="http://sumo.dlr.de/xsd/duarouterConfiguration.xsd">

    <input>
        <net-file value="C:\Users\evans\Sumo\2025-02-26-16-48-44\osm.net.xml.gz"/>
        <route-files value="C:\Users\evans\Sumo\2025-02-26-16-48-44\osm.bicycle.trips.xml"/>
    </input>

    <output>
        <output-file value="C:\Users\evans\Sumo\2025-02-26-16-48-44\osm.bicycle.trips.xml.tmp"/>
        <alternatives-output value="NUL"/>
        <write-trips value="true"/>
    </output>

    <processing>
        <remove-loops value="true"/>
    </processing>

    <time>
        <begin value="0.0"/>
        <end value="86400.0"/>
    </time>

    <report>
        <no-warnings value="true"/>
        <ignore-errors value="true"/>
        <no-step-log value="true"/>
    </report>

</duarouterConfiguration>
-->

<routes xmlns:xsi="http://www.w3.org/2001/XMLSchema-instance" xsi:noNamespaceSchemaLocation="http://sumo.dlr.de/xsd/routes_file.xsd">
    <vType id="bike_bicycle" vClass="bicycle"/>
    <trip id="bike0" type="bike_bicycle" depart="0.00" departLane="best" from="415358495#5" to="180244626#2"/>
    <trip id="bike2" type="bike_bicycle" depart="9.14" departLane="best" from="561882826#6" to="561883405"/>
    <trip id="bike3" type="bike_bicycle" depart="13.71" departLane="best" from="565255792#6" to="341635867#1"/>
    <trip id="bike4" type="bike_bicycle" depart="18.28" departLane="best" departSpeed="max" from="-568372640" to="-180244636#6"/>
    <trip id="bike6" type="bike_bicycle" depart="27.42" departLane="best" departSpeed="max" from="-1333454140" to="561883408#0"/>
    <trip id="bike7" type="bike_bicycle" depart="31.99" departLane="best" from="-415362031#1" to="372396764#4"/>
    <trip id="bike8" type="bike_bicycle" depart="36.55" departLane="best" from="-561882826#4" to="424200900#2"/>
    <trip id="bike9" type="bike_bicycle" depart="41.12" departLane="best" departSpeed="max" from="563602693" to="1046388838#2"/>
    <trip id="bike10" type="bike_bicycle" depart="45.69" departLane="best" from="-543914346#0" to="-561889380#9"/>
    <trip id="bike11" type="bike_bicycle" depart="50.26" departLane="best" from="-563616187#1" to="540665092#11"/>
    <trip id="bike13" type="bike_bicycle" depart="59.40" departLane="best" from="-335765983#0" to="-372715927#0"/>
    <trip id="bike14" type="bike_bicycle" depart="63.97" departLane="best" from="563620321" to="425379570#1"/>
    <trip id="bike15" type="bike_bicycle" depart="68.54" departLane="best" from="563602675#0" to="563602484"/>
    <trip id="bike16" type="bike_bicycle" depart="73.11" departLane="best" from="563620378#1" to="9142445#1"/>
    <trip id="bike17" type="bike_bicycle" depart="77.68" departLane="best" departSpeed="max" from="-563620346" to="391278653#1"/>
    <trip id="bike18" type="bike_bicycle" depart="82.25" departLane="best" departSpeed="max" from="563616238#0" to="543914343#1"/>
    <trip id="bike20" type="bike_bicycle" depart="91.39" departLane="best" from="561447971" to="-183191792#4"/>
    <trip id="bike21" type="bike_bicycle" depart="95.96" departLane="best" from="-561883403" to="-563620267"/>
    <trip id="bike22" type="bike_bicycle" depart="100.53" departLane="best" from="9137054#4" to="-563585226#0"/>
    <trip id="bike23" type="bike_bicycle" depart="105.10" departLane="best" departSpeed="max" from="-341635870" to="-563616228#0"/>
    <trip id="bike25" type="bike_bicycle" depart="114.23" departLane="best" from="-563620310" to="-561889373#2"/>
    <trip id="bike26" type="bike_bicycle" depart="118.80" departLane="best" from="-563585221#0" to="-833077982#0"/>
    <trip id="bike27" type="bike_bicycle" depart="123.37" departLane="best" from="415361891#0" to="-505368794#0"/>
    <trip id="bike28" type="bike_bicycle" depart="127.94" departLane="best" from="-540665092#5" to="563602478"/>
    <trip id="bike29" type="bike_bicycle" depart="132.51" departLane="best" from="-372376369#0" to="-9122370#0"/>
    <trip id="bike30" type="bike_bicycle" depart="137.08" departLane="best" from="-563602505#0" to="-561881600#0"/>
    <trip id="bike31" type="bike_bicycle" depart="141.65" departLane="best" from="180244638#1" to="561889363#0"/>
    <trip id="bike33" type="bike_bicycle" depart="150.79" departLane="best" departSpeed="max" from="-561883405" to="-180244638#0"/>
    <trip id="bike34" type="bike_bicycle" depart="155.36" departLane="best" from="-563602644" to="-563616165"/>
    <trip id="bike35" type="bike_bicycle" depart="159.93" departLane="best" from="-561882376#3" to="-1338769044#2"/>
    <trip id="bike36" type="bike_bicycle" depart="164.50" departLane="best" departSpeed="max" from="563626801" to="-563626657#1"/>
    <trip id="bike37" type="bike_bicycle" depart="169.07" departLane="best" from="421884294#10" to="-9138488#6"/>
    <trip id="bike38" type="bike_bicycle" depart="173.64" departLane="best" from="-586413246#18" to="-586080837"/>
    <trip id="bike39" type="bike_bicycle" depart="178.21" departLane="best" from="-563585213#1" to="563602569#2"/>
    <trip id="bike40" type="bike_bicycle" depart="182.77" departLane="best" departSpeed="max" from="180244649#0" to="-563606223"/>
    <trip id="bike41" type="bike_bicycle" depart="187.34" departLane="best" from="-258844265#2" to="568382079"/>
    <trip id="bike43" type="bike_bicycle" depart="196.48" departLane="best" from="988304974" to="276157215#3"/>
    <trip id="bike44" type="bike_bicycle" depart="201.05" departLane="best" from="-291937088" to="-210830064"/>
    <trip id="bike45" type="bike_bicycle" depart="205.62" departLane="best" from="-372376369#0" to="561447977"/>
    <trip id="bike46" type="bike_bicycle" depart="210.19" departLane="best" from="563602575#3" to="-928756320#2"/>
    <trip id="bike47" type="bike_bicycle" depart="214.76" departLane="best" departSpeed="max" from="-258842238#2" to="-9122370#5"/>
    <trip id="bike48" type="bike_bicycle" depart="219.33" departLane="best" from="933009227#0" to="335766023#1"/>
    <trip id="bike50" type="bike_bicycle" depart="228.47" departLane="best" from="1095117785#0" to="563585233"/>
    <trip id="bike51" type="bike_bicycle" depart="233.04" departLane="best" departSpeed="max" from="425379570#0" to="343541421"/>
    <trip id="bike52" type="bike_bicycle" depart="237.61" departLane="best" from="-563585221#0" to="-561881600#2"/>
    <trip id="bike53" type="bike_bicycle" depart="242.18" departLane="best" from="372398472" to="1085025207"/>
    <trip id="bike54" type="bike_bicycle" depart="246.75" departLane="best" from="-673546596#2" to="9121996#1"/>
    <trip id="bike55" type="bike_bicycle" depart="251.32" departLane="best" from="563626773" to="563616139"/>
    <trip id="bike56" type="bike_bicycle" depart="255.88" departLane="best" from="-9147193#3" to="-561881611#0"/>
    <trip id="bike57" type="bike_bicycle" depart="260.45" departLane="best" from="586413246#12" to="563626842"/>
    <trip id="bike58" type="bike_bicycle" depart="265.02" departLane="best" from="563602586" to="561881598"/>
    <trip id="bike59" type="bike_bicycle" depart="269.59" departLane="best" from="335765983#2" to="-505368797#3"/>
    <trip id="bike61" type="bike_bicycle" depart="278.73" departLane="best" from="-563602462#0" to="-341623766#3"/>
    <trip id="bike62" type="bike_bicycle" depart="283.30" departLane="best" from="-1044405760#0" to="-563626845#2"/>
    <trip id="bike63" type="bike_bicycle" depart="287.87" departLane="best" from="-1287285710" to="713677736"/>
    <trip id="bike64" type="bike_bicycle" depart="292.44" departLane="best" from="-563626836#0" to="563620358#1"/>
    <trip id="bike66" type="bike_bicycle" depart="301.58" departLane="best" from="563626831" to="909650346#1"/>
    <trip id="bike67" type="bike_bicycle" depart="306.15" departLane="best" from="-291937082#4" to="-225470252#4"/>
    <trip id="bike69" type="bike_bicycle" depart="315.29" departLane="best" from="-563585158#1" to="423655377#1"/>
    <trip id="bike70" type="bike_bicycle" depart="319.86" departLane="best" from="-9119753#0" to="372746863"/>
    <trip id="bike71" type="bike_bicycle" depart="324.42" departLane="best" from="563585214" to="-563626845#2"/>
    <trip id="bike72" type="bike_bicycle" depart="328.99" departLane="best" from="-9130541#0" to="561889378#0"/>
    <trip id="bike73" type="bike_bicycle" depart="333.56" departLane="best" from="-1315070421#1" to="563602484"/>
    <trip id="bike74" type="bike_bicycle" depart="338.13" departLane="best" from="561881610#0" to="-563626610"/>
    <trip id="bike75" type="bike_bicycle" depart="342.70" departLane="best" from="928756320#1" to="561881611#1"/>
    <trip id="bike76" type="bike_bicycle" depart="347.27" departLane="best" departSpeed="max" from="-586147124" to="291937082#3"/>
    <trip id="bike77" type="bike_bicycle" depart="351.84" departLane="best" from="-415358495#5" to="-563585156#0"/>
    <trip id="bike78" type="bike_bicycle" depart="356.41" departLane="best" from="563616167#0" to="-424200895"/>
    <trip id="bike80" type="bike_bicycle" depart="365.55" departLane="best" departSpeed="max" from="-258844486" to="561447985#1"/>
    <trip id="bike81" type="bike_bicycle" depart="370.12" departLane="best" departSpeed="max" from="-561883405" to="586080835"/>
    <trip id="bike82" type="bike_bicycle" depart="374.69" departLane="best" from="-563626600" to="290619644#2"/>
    <trip id="bike83" type="bike_bicycle" depart="379.26" departLane="best" from="561889363#2" to="561882822"/>
    <trip id="bike84" type="bike_bicycle" depart="383.83" departLane="best" departSpeed="max" from="-561882379#6" to="423697248#1"/>
    <trip id="bike86" type="bike_bicycle" depart="392.97" departLane="best" from="9117537#2" to="563616154#1"/>
    <trip id="bike87" type="bike_bicycle" depart="397.53" departLane="best" from="563602675#0" to="561882384#2"/>
    <trip id="bike88" type="bike_bicycle" depart="402.10" departLane="best" from="341623766#3" to="-1046388838#2"/>
    <trip id="bike89" type="bike_bicycle" depart="406.67" departLane="best" from="-568373941#1" to="180244642#1"/>
    <trip id="bike90" type="bike_bicycle" depart="411.24" departLane="best" from="563626789" to="561882826#6"/>
    <trip id="bike91" type="bike_bicycle" depart="415.81" departLane="best" from="9148332#4" to="-391278619"/>
    <trip id="bike92" type="bike_bicycle" depart="420.38" departLane="best" departSpeed="max" from="-563626742" to="-585994314"/>
    <trip id="bike93" type="bike_bicycle" depart="424.95" departLane="best" from="-563626606#2" to="563602583"/>
    <trip id="bike94" type="bike_bicycle" depart="429.52" departLane="best" from="-561462140#0" to="1333430094#1"/>
    <trip id="bike95" type="bike_bicycle" depart="434.09" departLane="best" departSpeed="max" from="-568372640" to="-563616228#1"/>
    <trip id="bike96" type="bike_bicycle" depart="438.66" departLane="best" from="-561889380#6" to="656443274#3"/>
    <trip id="bike97" type="bike_bicycle" depart="443.23" departLane="best" from="586413246#4" to="563626761#0"/>
    <trip id="bike98" type="bike_bicycle" depart="447.80" departLane="best" from="180244632#1" to="-243606228#0"/>
    <trip id="bike99" type="bike_bicycle" depart="452.37" departLane="best" from="-993172543#1" to="563620374"/>
    <trip id="bike100" type="bike_bicycle" depart="456.94" departLane="best" from="9138488#6" to="673546596#1"/>
    <trip id="bike101" type="bike_bicycle" depart="461.51" departLane="best" from="-563620330#0" to="-561447967"/>
    <trip id="bike102" type="bike_bicycle" depart="466.08" departLane="best" from="-9130541#4" to="-561889380#1"/>
    <trip id="bike104" type="bike_bicycle" depart="475.21" departLane="best" from="-563620349" to="9150977#2"/>
    <trip id="bike105" type="bike_bicycle" depart="479.78" departLane="best" from="563585214" to="563616154#0"/>
    <trip id="bike106" type="bike_bicycle" depart="484.35" departLane="best" from="-713097435#0" to="-993172539#0"/>
    <trip id="bike108" type="bike_bicycle" depart="493.49" departLane="best" from="-180244637#1" to="563585229"/>
    <trip id="bike109" type="bike_bicycle" depart="498.06" departLane="best" from="-425372794" to="563620312"/>
    <trip id="bike110" type="bike_bicycle" depart="502.63" departLane="best" from="9138488#5" to="423654395"/>
    <trip id="bike111" type="bike_bicycle" depart="507.20" departLane="best" from="1333430095#1" to="563602582#1"/>
    <trip id="bike112" type="bike_bicycle" depart="511.77" departLane="best" departSpeed="max" from="-225485355" to="-423697246#2"/>
    <trip id="bike113" type="bike_bicycle" depart="516.34" departLane="best" from="-9147193#9" to="563626637#1"/>
    <trip id="bike114" type="bike_bicycle" depart="520.91" departLane="best" from="-425379241#0" to="9130541#5"/>
    <trip id="bike115" type="bike_bicycle" depart="525.48" departLane="best" from="-276157215#9" to="561882379#0"/>
    <trip id="bike116" type="bike_bicycle" depart="530.05" departLane="best" from="-276157215#9" to="561883401"/>
    <trip id="bike118" type="bike_bicycle" depart="539.19" departLane="best" from="565255792#1" to="-563602531"/>
    <trip id="bike119" type="bike_bicycle" depart="543.75" departLane="best" from="-276157215#8" to="543914344#0"/>
    <trip id="bike120" type="bike_bicycle" depart="548.32" departLane="best" from="-565248151" to="423697246#1"/>
    <trip id="bike121" type="bike_bicycle" depart="552.89" departLane="best" from="-993172543#1" to="778136694#2"/>
    <trip id="bike122" type="bike_bicycle" depart="557.46" departLane="best" departSpeed="max" from="-561881613" to="563585222"/>
    <trip id="bike123" type="bike_bicycle" depart="562.03" departLane="best" from="-561889364#0" to="-9138488#6"/>
    <trip id="bike124" type="bike_bicycle" depart="566.60" departLane="best" from="-563616149" to="563620330#0"/>
    <trip id="bike125" type="bike_bicycle" depart="571.17" departLane="best" from="-563602647" to="-563602591"/>
    <trip id="bike126" type="bike_bicycle" depart="575.74" departLane="best" departSpeed="max" from="-258844488#1" to="180244626#3"/>
    <trip id="bike127" type="bike_bicycle" depart="580.31" departLane="best" from="-993172540#0" to="993172539#1"/>
    <trip id="bike128" type="bike_bicycle" depart="584.88" departLane="best" departSpeed="max" from="-258844489" to="-561889379"/>
    <trip id="bike130" type="bike_bicycle" depart="594.02" departLane="best" from="563626845#3" to="565248142"/>
    <trip id="bike131" type="bike_bicycle" depart="598.59" departLane="best" departSpeed="max" from="-563620305" to="540665092#8"/>
    <trip id="bike133" type="bike_bicycle" depart="607.73" departLane="best" from="-335765986#6" to="9151585#1"/>
    <trip id="bike134" type="bike_bicycle" depart="612.29" departLane="best" from="421884292#2" to="-1068112362"/>
    <trip id="bike135" type="bike_bicycle" depart="616.86" departLane="best" from="563616164#1" to="-563620329#0"/>
    <trip id="bike136" type="bike_bicycle" depart="621.43" departLane="best" from="423697246#1" to="837196483"/>
    <trip id="bike137" type="bike_bicycle" depart="626.00" departLane="best" from="-421884289#0" to="-415361892#0"/>
    <trip id="bike138" type="bike_bicycle" depart="630.57" departLane="best" departSpeed="max" from="-361975629#1" to="391278720#2"/>
    <trip id="bike139" type="bike_bicycle" depart="635.14" departLane="best" from="-563585233" to="425380526#1"/>
    <trip id="bike140" type="bike_bicycle" depart="639.71" departLane="best" from="561881611#0" to="-561888422#3"/>
    <trip id="bike141" type="bike_bicycle" depart="644.28" departLane="best" from="415358492#0" to="563616142"/>
    <trip id="bike142" type="bike_bicycle" depart="648.85" departLane="best" from="-9138488#1" to="586080835"/>
    <trip id="bike143" type="bike_bicycle" depart="653.42" departLane="best" from="563620317" to="-371908694#0"/>
    <trip id="bike144" type="bike_bicycle" depart="657.99" departLane="best" from="-258842233" to="563616214"/>
    <trip id="bike145" type="bike_bicycle" depart="662.56" departLane="best" from="1044405760#6" to="563602653#1"/>
    <trip id="bike146" type="bike_bicycle" depart="667.13" departLane="best" departSpeed="max" from="415358495#0" to="-563605690"/>
    <trip id="bike147" type="bike_bicycle" depart="671.70" departLane="best" from="561883409#5" to="391278653#0"/>
    <trip id="bike148" type="bike_bicycle" depart="676.27" departLane="best" departSpeed="max" from="-568380588#1" to="-1090698273#0"/>
    <trip id="bike149" type="bike_bicycle" depart="680.84" departLane="best" from="267110730#0" to="565255792#0"/>
    <trip id="bike150" type="bike_bicycle" depart="685.40" departLane="best" from="568382083#1" to="372398472"/>
    <trip id="bike151" type="bike_bicycle" depart="689.97" departLane="best" from="563616293#6" to="423697243"/>
    <trip id="bike155" type="bike_bicycle" depart="708.25" departLane="best" from="568380591#2" to="-561889374#1"/>
    <trip id="bike157" type="bike_bicycle" depart="717.39" departLane="best" from="563602486" to="586413259#0"/>
    <trip id="bike158" type="bike_bicycle" depart="721.96" departLane="best" departSpeed="max" from="-563626778" to="-543914346#2"/>
    <trip id="bike159" type="bike_bicycle" depart="726.53" departLane="best" from="-425372794" to="713677738"/>
    <trip id="bike160" type="bike_bicycle" depart="731.10" departLane="best" from="-563626637#1" to="9147193#5"/>
    <trip id="bike161" type="bike_bicycle" depart="735.67" departLane="best" departSpeed="max" from="563606218" to="565248153#0"/>
    <trip id="bike162" type="bike_bicycle" depart="740.24" departLane="best" from="-1333454138#0" to="563602528#0"/>
    <trip id="bike163" type="bike_bicycle" depart="744.81" departLane="best" departSpeed="max" from="-563616152" to="737722158#0"/>
    <trip id="bike164" type="bike_bicycle" depart="749.38" departLane="best" from="563602645#1" to="563626775"/>
    <trip id="bike165" type="bike_bicycle" depart="753.95" departLane="best" departSpeed="max" from="563606218" to="-563616164#0"/>
    <trip id="bike167" type="bike_bicycle" depart="763.08" departLane="best" from="563626743" to="563626742"/>
    <trip id="bike168" type="bike_bicycle" depart="767.65" departLane="best" departSpeed="max" from="-561882823" to="563620288"/>
    <trip id="bike169" type="bike_bicycle" depart="772.22" departLane="best" from="-778136694#0" to="563620401"/>
    <trip id="bike170" type="bike_bicycle" depart="776.79" departLane="best" from="563602593#0" to="-563585211#0"/>
    <trip id="bike171" type="bike_bicycle" depart="781.36" departLane="best" from="1333430095#0" to="-561882824"/>
    <trip id="bike172" type="bike_bicycle" depart="785.93" departLane="best" departSpeed="max" from="-563616141#1" to="563626775"/>
    <trip id="bike173" type="bike_bicycle" depart="790.50" departLane="best" from="9138488#15" to="-563616233"/>
    <trip id="bike174" type="bike_bicycle" depart="795.07" departLane="best" departSpeed="max" from="415358497#0" to="-9142394#2"/>
    <trip id="bike175" type="bike_bicycle" depart="799.64" departLane="best" from="-9147358#1" to="-343537873"/>
    <trip id="bike176" type="bike_bicycle" depart="804.21" departLane="best" from="837196484" to="-415361892#0"/>
    <trip id="bike178" type="bike_bicycle" depart="813.35" departLane="best" departSpeed="max" from="9137054#0" to="-563616151"/>
    <trip id="bike179" type="bike_bicycle" depart="817.92" departLane="best" from="371908694#1" to="1068112365"/>
    <trip id="bike180" type="bike_bicycle" depart="822.49" departLane="best" from="561882382" to="563626639#0"/>
    <trip id="bike181" type="bike_bicycle" depart="827.06" departLane="best" from="291937086" to="-276157215#9"/>
    <trip id="bike183" type="bike_bicycle" depart="836.19" departLane="best" from="-563585136" to="563585182"/>
    <trip id="bike184" type="bike_bicycle" depart="840.76" departLane="best" from="1044405760#11" to="656443276"/>
    <trip id="bike185" type="bike_bicycle" depart="845.33" departLane="best" from="-1287285710" to="563585231"/>
    <trip id="bike186" type="bike_bicycle" depart="849.90" departLane="best" from="-561883410#0" to="-561882825"/>
    <trip id="bike187" type="bike_bicycle" depart="854.47" departLane="best" from="563620281#0" to="-290619644#0"/>
    <trip id="bike188" type="bike_bicycle" depart="859.04" departLane="best" departSpeed="max" from="423697247" to="-568373143#0"/>
    <trip id="bike189" type="bike_bicycle" depart="863.61" departLane="best" departSpeed="max" from="-563602637" to="563626608"/>
    <trip id="bike190" type="bike_bicycle" depart="868.18" departLane="best" from="561882368#0" to="-563620341"/>
    <trip id="bike192" type="bike_bicycle" depart="877.32" departLane="best" departSpeed="max" from="-563626742" to="563620311#0"/>
    <trip id="bike193" type="bike_bicycle" depart="881.89" departLane="best" from="-415361889#2" to="-920874877"/>
    <trip id="bike194" type="bike_bicycle" depart="886.46" departLane="best" from="837196485#2" to="561883407"/>
    <trip id="bike195" type="bike_bicycle" depart="891.03" departLane="best" from="568382080" to="540665092#3"/>
    <trip id="bike196" type="bike_bicycle" depart="895.60" departLane="best" departSpeed="max" from="-563602593#1" to="372715929"/>
    <trip id="bike197" type="bike_bicycle" depart="900.16" departLane="best" from="1044405760#0" to="563616294#0"/>
    <trip id="bike198" type="bike_bicycle" depart="904.73" departLane="best" from="568380596#1" to="423655377#0"/>
    <trip id="bike199" type="bike_bicycle" depart="909.30" departLane="best" from="421884293#3" to="180244637#1"/>
    <trip id="bike200" type="bike_bicycle" depart="913.87" departLane="best" from="586413246#18" to="-561889380#1"/>
    <trip id="bike201" type="bike_bicycle" depart="918.44" departLane="best" from="9117537#3" to="586413246#15"/>
    <trip id="bike203" type="bike_bicycle" depart="927.58" departLane="best" from="-291937082#2" to="287145664#3"/>
    <trip id="bike204" type="bike_bicycle" depart="932.15" departLane="best" from="395713364#0" to="-568380596#0"/>
    <trip id="bike205" type="bike_bicycle" depart="936.72" departLane="best" from="-563616169" to="563602590"/>
    <trip id="bike206" type="bike_bicycle" depart="941.29" departLane="best" from="563616150" to="-563585149#0"/>
    <trip id="bike207" type="bike_bicycle" depart="945.86" departLane="best" departSpeed="max" from="-561881606" to="586080835"/>
    <trip id="bike208" type="bike_bicycle" depart="950.43" departLane="best" from="561889377" to="-180244658#4"/>
    <trip id="bike209" type="bike_bicycle" depart="955.00" departLane="best" from="563620344" to="-291937082#4"/>
    <trip id="bike210" type="bike_bicycle" depart="959.57" departLane="best" from="563626845#2" to="561447981#1"/>
    <trip id="bike211" type="bike_bicycle" depart="964.14" departLane="best" from="561881600#1" to="561889380#4"/>
    <trip id="bike213" type="bike_bicycle" depart="973.27" departLane="best" from="421884294#11" to="-1046388838#0"/>
    <trip id="bike214" type="bike_bicycle" depart="977.84" departLane="best" from="561889374#1" to="563602651#1"/>
    <trip id="bike215" type="bike_bicycle" depart="982.41" departLane="best" departSpeed="max" from="-361975629#1" to="993172544"/>
    <trip id="bike216" type="bike_bicycle" depart="986.98" departLane="best" from="-543914348" to="-9124791#3"/>
    <trip id="bike217" type="bike_bicycle" depart="991.55" departLane="best" from="-920874877" to="225477832#1"/>
    <trip id="bike218" type="bike_bicycle" depart="996.12" departLane="best" from="-561889380#5" to="563626608"/>
    <trip id="bike219" type="bike_bicycle" depart="1000.69" departLane="best" departSpeed="max" from="-713677738" to="-563616235"/>
    <trip id="bike220" type="bike_bicycle" depart="1005.26" departLane="best" from="424200895" to="9151585#2"/>
    <trip id="bike224" type="bike_bicycle" depart="1023.54" departLane="best" from="563616287" to="372715929"/>
    <trip id="bike225" type="bike_bicycle" depart="1028.11" departLane="best" from="568376000" to="563602575#0"/>
    <trip id="bike226" type="bike_bicycle" depart="1032.68" departLane="best" from="9117537#8" to="-563602657"/>
    <trip id="bike227" type="bike_bicycle" depart="1037.25" departLane="best" from="-561889380#0" to="561881596"/>
    <trip id="bike228" type="bike_bicycle" depart="1041.82" departLane="best" from="-563585158#1" to="291937084#5"/>
    <trip id="bike229" type="bike_bicycle" depart="1046.38" departLane="best" from="372398472" to="-563616200#0"/>
    <trip id="bike230" type="bike_bicycle" depart="1050.95" departLane="best" from="-276157215#1" to="-563616293#6"/>
    <trip id="bike231" type="bike_bicycle" depart="1055.52" departLane="best" departSpeed="max" from="-563585232" to="-563626797"/>
    <trip id="bike232" type="bike_bicycle" depart="1060.09" departLane="best" from="1323848411#0" to="-425371756"/>
    <trip id="bike233" type="bike_bicycle" depart="1064.66" departLane="best" from="-561883409#0" to="561889378#2"/>
    <trip id="bike234" type="bike_bicycle" depart="1069.23" departLane="best" from="-561447982" to="-276157215#1"/>
    <trip id="bike235" type="bike_bicycle" depart="1073.80" departLane="best" departSpeed="max" from="-563626780" to="-371908694#1"/>
    <trip id="bike236" type="bike_bicycle" depart="1078.37" departLane="best" departSpeed="max" from="-563628854#1" to="561889366"/>
    <trip id="bike237" type="bike_bicycle" depart="1082.94" departLane="best" from="-565248153#0" to="586080833"/>
    <trip id="bike238" type="bike_bicycle" depart="1087.51" departLane="best" from="-258844265#0" to="561889380#10"/>
    <trip id="bike239" type="bike_bicycle" depart="1092.08" departLane="best" from="-563620392#0" to="563602638"/>
    <trip id="bike240" type="bike_bicycle" depart="1096.65" departLane="best" departSpeed="max" from="-563620353" to="-1046388838#1"/>
    <trip id="bike242" type="bike_bicycle" depart="1105.79" departLane="best" from="563620373" to="778136694#1"/>
    <trip id="bike243" type="bike_bicycle" depart="1110.36" departLane="best" departSpeed="max" from="-565248149" to="563602581#0"/>
    <trip id="bike244" type="bike_bicycle" depart="1114.93" departLane="best" from="-1338769044#0" to="-540665092#10"/>
    <trip id="bike246" type="bike_bicycle" depart="1124.06" departLane="best" from="586080832" to="180244636#4"/>
    <trip id="bike247" type="bike_bicycle" depart="1128.63" departLane="best" departSpeed="max" from="-563616162" to="561883409#2"/>
    <trip id="bike248" type="bike_bicycle" depart="1133.20" departLane="best" from="-563626755#0" to="-561447964#0"/>
    <trip id="bike250" type="bike_bicycle" depart="1142.34" departLane="best" from="371908690#0" to="180244632#4"/>
    <trip id="bike251" type="bike_bicycle" depart="1146.91" departLane="best" from="563626602#1" to="-415361886#1"/>
    <trip id="bike252" type="bike_bicycle" depart="1151.48" departLane="best" from="1338769043#1" to="561881601#2"/>
    <trip id="bike253" type="bike_bicycle" depart="1156.05" departLane="best" from="-421884292#2" to="-180244636#0"/>
    <trip id="bike254" type="bike_bicycle" depart="1160.62" departLane="best" from="-183191792#4" to="563602642#1"/>
    <trip id="bike255" type="bike_bicycle" depart="1165.19" departLane="best" from="-561882378" to="-563637943#0"/>
    <trip id="bike256" type="bike_bicycle" depart="1169.76" departLane="best" from="-563585133" to="563602642#1"/>
    <trip id="bike257" type="bike_bicycle" depart="1174.33" departLane="best" from="561889377" to="563620358#2"/>
    <trip id="bike258" type="bike_bicycle" depart="1178.90" departLane="best" from="-563585109" to="335765986#5"/>
    <trip id="bike260" type="bike_bicycle" depart="1188.03" departLane="best" from="-993172544" to="-586413249#0"/>
    <trip id="bike261" type="bike_bicycle" depart="1192.60" departLane="best" from="-563585158#1" to="563616142"/>
    <trip id="bike263" type="bike_bicycle" depart="1201.74" departLane="best" from="9119204" to="-561883409#0"/>
    <trip id="bike264" type="bike_bicycle" depart="1206.31" departLane="best" from="-1315070421#1" to="-505368797#2"/>
    <trip id="bike265" type="bike_bicycle" depart="1210.88" departLane="best" from="-415361887" to="561882823"/>
    <trip id="bike266" type="bike_bicycle" depart="1215.45" departLane="best" from="180244654#1" to="561889382"/>
    <trip id="bike267" type="bike_bicycle" depart="1220.02" departLane="best" from="543914346#2" to="563602641"/>
    <trip id="bike268" type="bike_bicycle" depart="1224.59" departLane="best" from="533665196#0" to="440267648#1"/>
    <trip id="bike269" type="bike_bicycle" depart="1229.16" departLane="best" departSpeed="max" from="561889369" to="-415361891#0"/>
    <trip id="bike270" type="bike_bicycle" depart="1233.73" departLane="best" from="563616180" to="9138488#13"/>
    <trip id="bike271" type="bike_bicycle" depart="1238.30" departLane="best" from="-371908694#0" to="180244632#1"/>