<?xml version="1.0" encoding="UTF-8"?>

<!-- generated on 2025-02-25 19:04:11.368162 by osmWebWizard.py v1_21_0+0000-d7b3b481c43
<configuration>
    <net-file value="C:\Users\evans\Sumo\2025-02-25-19-04-05\osm.net.xml.gz"/>
    <additional-files value="C:\Users\evans\Sumo\2025-02-25-19-04-05\osm_stops.add.xml,C:\Users\evans\Sumo\2025-02-25-19-04-05\osm_pt.rou.xml"/>
    <output-trip-file value="C:\Users\evans\Sumo\2025-02-25-19-04-05\osm.pedestrian.trips.xml"/>
    <route-file value="C:\Users\evans\Sumo\2025-02-25-19-04-05\osm.pedestrian.rou.xml"/>
    <persontrips value="True"/>
    <persontrip.walk-opposite-factor value="0.8"/>
    <prefix value="ped"/>
    <trip-attributes value="modes=&quot;public&quot;"/>
    <vehicle-class value="pedestrian"/>
    <fringe-factor value="1"/>
    <insertion-density value="10.0"/>
    <duarouter-weights.tls-penalty value="20"/>
</configuration>
-->

<!-- generated on 2025-02-25 19:04:11 by Eclipse SUMO duarouter Version 1.21.0
<duarouterConfiguration xmlns:xsi="http://www.w3.org/2001/XMLSchema-instance" xsi:noNamespaceSchemaLocation="http://sumo.dlr.de/xsd/duarouterConfiguration.xsd">

    <input>
        <net-file value="C:\Users\evans\Sumo\2025-02-25-19-04-05\osm.net.xml.gz"/>
        <additional-files value="C:\Users\evans\Sumo\2025-02-25-19-04-05\osm_stops.add.xml,C:\Users\evans\Sumo\2025-02-25-19-04-05\osm_pt.rou.xml"/>
        <route-files value="C:\Users\evans\Sumo\2025-02-25-19-04-05\osm.pedestrian.trips.xml"/>
    </input>

    <output>
        <output-file value="C:\Users\evans\Sumo\2025-02-25-19-04-05\osm.pedestrian.rou.xml"/>
        <alternatives-output value="NUL"/>
    </output>

    <processing>
        <weights.tls-penalty value="20"/>
        <persontrip.walk-opposite-factor value="0.8"/>
    </processing>

    <time>
        <begin value="0.0"/>
        <end value="3600.0"/>
    </time>

    <report>
        <no-warnings value="true"/>
        <ignore-errors value="true"/>
        <no-step-log value="true"/>
    </report>

</duarouterConfiguration>
-->

<routes xmlns:xsi="http://www.w3.org/2001/XMLSchema-instance" xsi:noNamespaceSchemaLocation="http://sumo.dlr.de/xsd/routes_file.xsd">
    <vType id="ped_pedestrian" vClass="pedestrian"/>
    <person id="ped0" type="ped_pedestrian" depart="0.00">
        <walk edges="225485350#3 225485350#2 225466097#2 225466103 225466137#1 225466137#2 1134398608#1 335765996 335765998 225486056 346382722#1 225446896#0 225446896#1 225466115#3 225470262#0 -225470252#3"/>
    </person>
    <person id="ped2" type="ped_pedestrian" depart="23.62">
        <walk edges="335766015#0 335765990#4 585995064#2 585995064#1 585995064#0 585995063#1 585995063#6 225446901 225446893#2 225446893#3 225571225 225571232#1"/>
    </person>
    <person id="ped4" type="ped_pedestrian" depart="47.23">
        <walk edges="225466111#1 225466111#2 225466111#3 372765901#0 372765901#1 225477832#1 225485327#1 225485350#2 225466097#2 225466097#3 225466097#4 225466098#1 225466108 225446900#0 1134398600#2 1134398600#1 225446903#0 225446903#1 225466102#1 225466102#2 225466102#3 225466102#4 225466118#0 225485355 -225485355"/>
    </person>
    <person id="ped6" type="ped_pedestrian" depart="70.85">
        <walk edges="-225470252#4 -225470252#3 225470262#0 225466115#3 225446893#0 585995063#4 585995063#3 585995063#2 585995064#0 225485334 225446891#3 335766015#2 -335765986#6 -563620266 -563620270#0"/>
    </person>
    <person id="ped7" type="ped_pedestrian" depart="82.66">
        <walk edges="225485361#1 225485361#2 225485350#0 225485350#1 225466097#2 225466097#3 225466097#4 225466098#1 225466108 225466110#4 225466110#3 225466110#2 225466110#1 225466110#0 225470359#0 225485323#1 225485323#0 778437847 225470357#2 778437849 225470234#1 225470234#0 225470245#1 225470245#2 225470257"/>
    </person>
    <person id="ped11" type="ped_pedestrian" depart="129.89">
        <walk edges="225446893#1 225466115#3 225470262#0 225470252#3 225470252#4 225470252#5 225470250#2 225470253#0 225470246#0 225470246#1 225470245#2 225470257 225470244#0 778437843#0 778437843#1 778437842#2 778437842#1 180244632#1 180244632#2 563602539 -563602539"/>
    </person>
    <person id="ped12" type="ped_pedestrian" depart="141.70">
        <walk edges="585995063#6 225446891#5 225446891#4 225446891#3"/>
    </person>
    <person id="ped15" type="ped_pedestrian" depart="177.12">
        <walk edges="543914347 183191792#5 225485346#2 225485330#1 225485347#1 225485342 225485361#2 225485350#0 225485350#1 225466097#2 225466103 225466137#1 225466137#2 1134398608#1 335765996 335765998"/>
    </person>
    <person id="ped17" type="ped_pedestrian" depart="200.73">
        <walk edges="225466094#1 225446893#3 225446893#2 225446893#1 225466115#3 225470262#0 225470262#1 225470262#2 225470262#3 225470262#4"/>
    </person>
    <person id="ped19" type="ped_pedestrian" depart="224.35">
        <walk edges="563602543 -180244632#3 -180244632#2 -180244632#1 778437842#1 778437844#1 778437844#0 225470244#2 225470244#3 225470244#4 225466128#3 225466128#2 225466079 225446899#1 225466085 225466110#0 225470359#0"/>
    </person>
    <person id="ped23" type="ped_pedestrian" depart="271.58">
        <walk edges="-543914343#1 1050574279#2 1050574279#3 1050574279#4"/>
    </person>
    <person id="ped24" type="ped_pedestrian" depart="283.39">
        <walk edges="225485350#0 225485350#1 225466097#1 225466097#0 225466135#0 225466082"/>
    </person>
    <person id="ped27" type="ped_pedestrian" depart="318.81">
        <walk edges="225485360#1 225470359#2 225571731 225470240#1 225470240#0 225470250#0 225470262#2 225470262#1 225470262#0 225466115#3 225446893#0 585995063#5 585995063#6 225446891#5 225485335 225485331#1"/>
    </person>
    <person id="ped28" type="ped_pedestrian" depart="330.62">
        <walk edges="-563602655 543914343#1 1050574279#2 1050574279#3 1050574279#4 -543914346#0 183191792#3 183191792#4 183191792#5 225485346#2 225485330#1 225485347#1 225485342 225485361#2 225485350#0 225485350#1 225466097#2 225466103 225466137#1 225466137#2 1134398608#1 335765996 335765998"/>
    </person>
    <person id="ped29" type="ped_pedestrian" depart="342.43">
        <walk edges="-563602576 225486058 225470236#2 225470236#1 225470236#0 225470265#1 225470265#2 1050574261#0 1050574261#1 225470274#2 225470274#1 1050574260#0 -372396764#0 -225470252#4 -225470252#3 225470262#0 225466115#3 225446893#1 225446893#2 225446893#3 225466094#1 225466094#2"/>
    </person>
    <person id="ped30" type="ped_pedestrian" depart="354.24">
        <walk edges="837196484 -837196483 -180244632#4 -180244632#3 -180244632#2 -180244632#1 778437842#1 778437844#1 778437844#0 225470244#2 225470244#3 225470244#4 225466128#3 225466128#2 225466079 225446899#0 225569126 1134398600#4 1134398600#3 225446900#0 225466108 225466098#1 225466097#4 225466097#3 225466097#2 225485350#2 225485327#1 -225477832#1 372765901#1 372765901#0 225466111#3 225466111#2 225466111#1 225485353#0"/>
    </person>
    <person id="ped31" type="ped_pedestrian" depart="366.05">
        <walk edges="225470265#1 225470265#2 1050574261#0 1050574261#1 225470274#2 225470274#1 1050574260#0 -372396764#0 -225470252#4 -225470252#3 225470262#0 225466115#3 225446896#1 225446890 225572146"/>
    </person>
    <person id="ped32" type="ped_pedestrian" depart="377.85">
        <walk edges="563602507#0 563602522#0 563602522#1 1046388838#0 1046388838#1 1046388838#2 563602529 372715929 -276157215#0 276157217 -276157217 276157215#0 415361889#0 415361890#2"/>
    </person>
    <person id="ped35" type="ped_pedestrian" depart="413.28">
        <walk edges="-563620292 287145656#4 551576182 656443275 656443273 656443274#0 656443274#1 656443274#2 -656443274#3 -656443274#1 -656443274#0 563620366"/>
    </person>
    <person id="ped37" type="ped_pedestrian" depart="436.89">
        <walk edges="225485362#0 225466117#1 225466117#2 225466117#3 225466100#0"/>
    </person>
    <person id="ped38" type="ped_pedestrian" depart="448.70">
        <walk edges="563620281#0 563620281#1 563620276 335765986#4 335765986#5 335765986#6 335765986#8 563602475#1 563602478 225466124#8 225466124#7 225466124#6 225466124#5 225466124#4"/>
    </person>
    <person id="ped43" type="ped_pedestrian" depart="507.74">
        <walk edges="837196490 563602548 -180244632#1 778437842#1 778437842#2 778437843#1 778437843#0 225470244#0 225470257 225470245#2 225470246#1 225470246#0 225470253#0 225470250#2 225470250#1 225470240#0"/>
    </person>
    <person id="ped46" type="ped_pedestrian" depart="543.16">
        <walk edges="543821135 225485333#0 225466117#1 225466117#2 225466117#3 225466100#0 517434099 225485338#0 225485361#0 225485361#1 225485361#2 225485361#3 225485361#4 225485361#5 372765901#2 372765901#1 372765901#0 225466111#3 225466111#2 225466111#1"/>
    </person>
    <person id="ped47" type="ped_pedestrian" depart="554.97">
        <walk edges="-335765986#4 335765986#5 335765986#6 335765986#8 563602475#1 563602478 225466124#8 225466122 225466094#2 225466094#3 225466083#1 225466083#0 225466090#1 225466090#0 225466096#0"/>
    </person>
    <person id="ped48" type="ped_pedestrian" depart="566.78">
        <walk edges="837196488 -180244632#2 -180244632#1 778437842#1 778437842#2 778437843#1 778437843#0 225470244#0 225470257 225470245#2"/>
    </person>
    <person id="ped50" type="ped_pedestrian" depart="590.40">
        <walk edges="-180244632#2 -180244632#1 778437842#1 778437842#2 778437843#1 778437843#0 225470244#0 225470257 225470245#2 225470246#1 225470246#0 225470253#0 225470250#2 -225470252#5 -225470252#4 -225470252#3 225470262#0 225466115#3 225446893#0 585995063#4 585995063#3 585995063#2 585995064#0 225485334 225446891#3 335766015#2 335765986#6"/>
    </person>
    <person id="ped51" type="ped_pedestrian" depart="602.20">
        <walk edges="225571730 225470240#0 225470250#0 225470262#2 225470262#1 225470252#3"/>
    </person>
    <person id="ped52" type="ped_pedestrian" depart="614.01">
        <walk edges="1050574261#1 225470274#2 225470274#1 1050574260#0 -372396764#0 -225470252#4 -225470252#3 225470262#0 225466115#3 225446893#1 225446893#2 225466124#10 225466124#9 225466124#8 225466124#7 225466124#6 225466124#5 225466124#4 225466109 225466132#0 225485348 225485353#1"/>
    </person>
    <person id="ped53" type="ped_pedestrian" depart="625.82">
        <walk edges="-543921248#0 543921248#1 543921248#2 563602651#1 543821136#0 225466102#6 225466117#0 225485362#0 225485362#1 225466102#1 225446903#1 225466116"/>
    </person>
    <person id="ped54" type="ped_pedestrian" depart="637.63">
        <walk edges="225466123#4 1050574262#0 1050574263 225466096#1 225466120#1 225466120#0 225466080#2 225466105#0 413506553#1 225571223 225446901 585995063#5 585995063#4 585995063#3"/>
    </person>
    <person id="ped56" type="ped_pedestrian" depart="661.24">
        <walk edges="225470236#2 225470236#1 225470236#0 225470237 225470276 225485336#4 225470233#0 225470234#0 225470234#1 778437849 225470357#2 778437847 225485323#0 225485323#1 225470359#0 225466110#0 225466110#1 225466110#2 225466110#3 225466110#4 225466108 225466098#1 225466097#4 225466097#3 225466097#2 225485350#2 225485327#1 -225477832#1 372725969 -563602679"/>
    </person>
    <person id="ped57" type="ped_pedestrian" depart="673.05">
        <walk edges="563620276 335765986#4 335765986#5 335765986#6 335766015#2 225446891#3 225485334 585995064#0 585995063#2 585995063#3 585995063#4 225446893#0 225466115#3 225470262#0 225470252#3 225470252#4 372707393 1050574260#0 225470274#1 225470274#2 1050574261#1 1050574261#0 225470265#2 225470265#1 225470236#0 225470236#1 225470236#2 225486058 372396765#1 563602575#0"/>
    </person>
    <person id="ped58" type="ped_pedestrian" depart="684.86">
        <walk edges="1134398603 1134398600#2 225446900#0 225466108 225466098#1 225466097#4 225466097#3 225466097#2 225485350#2 225485350#3"/>
    </person>
    <person id="ped60" type="ped_pedestrian" depart="708.48">
        <walk edges="372765901#3 225485361#5 225485327#0 225485327#1 225485350#2 225466097#2 225466103 225466137#1 225466137#2 225466137#3 225466137#4 1134398595#1 225470267#1 225470267#0 225470243#0 225470240#3 225470240#2 225470240#1 225470240#0 225470250#1 225470252#5"/>
    </person>
    <person id="ped65" type="ped_pedestrian" depart="767.52">
        <walk edges="1134398609 225470359#0 225466110#0 225466110#1 225466110#2 225466110#3 225470243#2 1134398594 225470238 335766013#2 225466099#1 225466096#3 225466129#1 225466129#0 225466090#1 225466088 225466132#1 225466124#2 225486052 -335765983#1"/>
    </person>
    <person id="ped68" type="ped_pedestrian" depart="802.94">
        <walk edges="-372396764#0 225470252#5 225470250#1 225470240#0 225470240#1 225470240#2 225470240#3 225470243#0 225470267#0 225470267#1 1134398595#1 225466137#4 225466137#3 225466137#2 225466137#1 225466103 225466097#2 225485350#2 225485327#1 -225477832#1 372765901#1"/>
    </person>
    <person id="ped70" type="ped_pedestrian" depart="826.55">
        <walk edges="225466129#1 225466096#3 225466099#1 335766013#1 335766013#0 225486056 346382722#1 225446896#0 225446896#1 225466115#3 225470262#0 225470262#1 225470262#2"/>
    </person>
    <person id="ped71" type="ped_pedestrian" depart="838.36">
        <walk edges="1050574260#1 1050574260#0 225470274#1 225470274#2 1050574261#1 1050574261#0 225470265#2 225470265#1 225470236#0 225470236#1 225470236#2 225486058 372396765#1 563602575#0 563602575#1"/>
    </person>
    <person id="ped73" type="ped_pedestrian" depart="861.98">
        <walk edges="225470252#5 225470250#1 225470240#0 225470240#1 225470240#2 225470240#3 225470240#4 225470240#5 346382722#1 225486056 335765998"/>
    </person>
    <person id="ped74" type="ped_pedestrian" depart="873.79">
        <walk edges="-563620274 335765986#4 335765986#5 335765986#6 335765986#8 563602475#1 563602478 225466124#8 225466122 225466094#2 225466094#3 225466083#1 225466105#2 225466105#1 225466080#2 225466080#1 225466080#0 225470238 1134398594 225470243#2 1134398601#1 1134398602 1134398600#2 1134398600#1 225446903#0 225446903#1 225466102#1 225485362#1 225485362#0 225466117#0 225466102#6 543821136#0 543821136#1 1183056880#1 1183056880#0"/>
    </person>
    <person id="ped75" type="ped_pedestrian" depart="885.59">
        <walk edges="837196486 -180244632#4 -180244632#3 -180244632#2 -180244632#1 778437842#1 778437844#1 778437844#0 225470244#2 225470244#3 225470244#4 225466128#3 225466118#1 225466118#0 225466102#4 225466102#3 225466100#5 225466100#4 225466100#3 225466100#2 225466100#1 517434099 225485338#0 225485361#0 225485361#1"/>
    </person>
    <person id="ped76" type="ped_pedestrian" depart="897.40">
        <walk edges="225466117#2 225485340#0 1134398596#0 1134398596#1 225466081#1 225466081#2 225466081#3 225569131 1134398600#1 1134398600#2 1134398602 1134398601#1 225470243#2 225470243#1 225470243#0"/>
    </person>
    <person id="ped78" type="ped_pedestrian" depart="921.02">
        <walk edges="225446891#5 585995063#6 225446901 225446893#2 225466124#10 225466124#9 225466124#8 225466124#7 225466124#6 225466124#5 225466124#4 225466124#3 225466124#2 225466111#0 225466111#1 225571226 225476493#0"/>
    </person>
    <person id="ped80" type="ped_pedestrian" depart="944.63">
        <walk edges="-372396764#3 -372396764#0 225470252#5 225470250#1 225470240#0 225470240#1 225470240#2 225470240#3 225470243#0 225470267#0 225470267#1 1134398595#1 225466137#4 225466137#3 225466137#2 225466137#1 225466103 225466097#2 225485350#1 225485350#0 225485361#2 225485342 225485347#1 225485330#1 225485346#2"/>
    </person>
    <person id="ped82" type="ped_pedestrian" depart="968.25">
        <walk edges="563602539 -180244632#2 -180244632#1 778437842#1 778437842#2 778437843#1 778437843#0 225470244#0 225470257 225470245#2 225470246#1 225470246#0 225470253#0 225470250#2 -225470252#5 372707393 -372396764#3"/>
    </person>
    <person id="ped84" type="ped_pedestrian" depart="991.87">
        <walk edges="-563620305 656443275 551576182 287145656#4 287145656#3 561883410#0 -561883410#0"/>
    </person>
    <person id="ped86" type="ped_pedestrian" depart="1015.48">
        <walk edges="225466128#2 225466128#3 225470244#4 225470244#3 225470244#2 778437844#0 778437844#1 778437842#1 180244632#1 563602548 -837196490 837196485#3 -440267648#1 440267648#0"/>
    </person>
    <person id="ped88" type="ped_pedestrian" depart="1039.10">
        <walk edges="-440267648#1 -837196485#3 837196488 -180244632#2 -180244632#1 778437842#1 778437842#2 778437843#1 778437843#0 225470244#0 225470257 225470245#2 225470246#1 225470246#0 225470253#0 225470250#2 -225470252#5 -225470252#4 -225470252#3 225470262#0 225466115#2 225466115#1 225466115#0"/>
    </person>
    <person id="ped89" type="ped_pedestrian" depart="1050.91">
        <walk edges="225466111#2 225466111#1 225466111#0 225466124#2 225466124#3 225466124#4 225466121#0 225466093#0 225466093#1 225466127#2 225466127#1 225466127#0"/>
    </person>
    <person id="ped90" type="ped_pedestrian" depart="1062.71">
        <walk edges="335765998 225486056 346382722#1 225470240#5 225470240#4 225470240#3 225470240#2 225571731 225470358#0 778437851 225470234#3 225485336#2 225470242#0 225470253#1 225470265#1 225470236#0 225470236#1 225470236#2 225470236#3 225470236#4 225571230"/>
    </person>
    <person id="ped91" type="ped_pedestrian" depart="1074.52">
        <walk edges="778437849 225470234#1 225470234#0 225470245#1 225470245#2 225470257 225470244#0 778437843#0 778437843#1 778437842#2 778437842#1 180244632#1 563602548 -837196490 837196485#3 440267648#2 -440267648#2"/>
    </person>
    <person id="ped92" type="ped_pedestrian" depart="1086.33">
        <walk edges="225466102#1 225446903#1 225446903#0 1134398600#1 1134398600#2 1134398602 1134398601#1 225470243#2 225470243#1 225470243#0 225470240#4 225470240#5 225446896#0 225446896#1 225446893#0"/>
    </person>
    <person id="ped94" type="ped_pedestrian" depart="1109.94">
        <walk edges="-563616188#1 -563616188#0 -372396764#4 -372396764#3 -372396764#0 225470252#5 225470250#1 225470240#0 225470240#1 225470240#2 225470240#3 225470240#4 225470240#5 346382722#1 225486056 335766013#0 335766013#1 225466099#1 225466096#3 225466096#2 225466096#1 225466096#0 225466123#0"/>
    </person>
    <person id="ped95" type="ped_pedestrian" depart="1121.75">
        <walk edges="225466111#0 225466111#1 225466111#2 225466111#3 372765901#0 372765901#1 372765901#2 372765901#3 372765901#4 -183191774#0 -183191745#0 -585997479 -183191792#5 -183191792#4 -563602657 -543914346#2 1050574279#5"/>
    </person>
    <person id="ped97" type="ped_pedestrian" depart="1145.37">
        <walk edges="225466118#1 225466128#3 225470244#4 225470244#3 225470244#2 778437844#0 778437844#1 778437842#1 180244632#1 180244632#2 180244632#3 563602543"/>
    </person>
    <person id="ped99" type="ped_pedestrian" depart="1168.98">
        <walk edges="920874877 -563616188#0 -372396764#4 -372396764#3 -372396764#0 225470252#5 225470250#2 225470253#0 225470246#0 225470246#1 225470245#2 225470257 225470244#0 778437843#0 778437843#1 778437842#2 778437842#1 180244632#1 563602548 -837196490 837196485#3 -440267648#1 -440267648#0 563602456 563602469 563602462#0"/>
    </person>
    <person id="ped100" type="ped_pedestrian" depart="1180.79">
        <walk edges="656443274#0 656443273 563620307"/>
    </person>
    <person id="ped103" type="ped_pedestrian" depart="1216.22">
        <walk edges="225466100#5 225485362#1 225466102#1 225446903#1 225446903#0 1134398600#1 1134398600#2 1134398602 1134398601#1 225470243#2 1134398594 225470238 225466080#0 225466080#1 225466080#2 225466105#1 225466105#2 225466083#1 225466094#3 225466094#2 225466122 225466124#8 -563602478 -563602666#0 -563602475#0 -335765986#6 -335765986#5 -335765986#4 -335765986#3 -335765986#2 -335765986#1 -335765986#0"/>
    </person>
    <person id="ped104" type="ped_pedestrian" depart="1228.02">
        <walk edges="225466094#1 225571225 225571232#0 225466105#1 225466105#0 346382722#0 346382722#1 225470240#5 225470240#4 225470240#3 225470240#2 225571731 225470358#0 225470358#1 225470358#2 778437850"/>
    </person>
    <person id="ped105" type="ped_pedestrian" depart="1239.83">
        <walk edges="1050574260#1 -372396764#0 225470252#5 225470250#2 225470253#0 225470246#0 225470246#1 225470245#2 225470257 225470244#0 778437843#0 778437843#1 778437842#2 778437842#1 180244632#1 563602548 -837196490 837196485#3 440267648#2 440267648#3 440267646"/>
    </person>
    <person id="ped106" type="ped_pedestrian" depart="1251.64">
        <walk edges="225466124#10 225466124#9 225466124#8 225466124#7 225466124#6 225466124#5 225466124#4 225466124#3 225466124#2 225466111#0 225466111#1 225466111#2"/>
    </person>
    <person id="ped107" type="ped_pedestrian" depart="1263.45">
        <walk edges="585995063#6 585995063#5 225446893#0 225466115#3 225470262#0 225470252#3 225470252#4 225470252#5 225470250#2 225470253#0 225470246#0 225470246#1 225470245#2 225470257 225470244#0 778437843#0 778437843#1 778437842#2 778437842#1 180244632#1 180244632#2 180244632#3 563602543 -837196485#1 837196486"/>
    </person>
    <person id="ped108" type="ped_pedestrian" depart="1275.26">
        <walk edges="225470264#2 225470250#2 -225470252#5 -225470252#4 -225470252#3 225470262#0 225466115#3 225446893#0 585995063#4 585995063#3 585995063#2 585995064#0 225485334 225446891#3 335766015#2 -335765986#6 -335765986#5 335765986#4"/>
    </person>
    <person id="ped109" type="ped_pedestrian" depart="1287.06">
        <walk edges="-563602533#0 225470244#3 225470244#4 225466128#3 225466128#2 225466079 225446899#0 225569126 1134398600#4 1134398600#3 1134398602"/>
    </person>
    <person id="ped111" type="ped_pedestrian" depart="1310.68">
        <walk edges="225470253#1 225470253#0 225470250#2 -225470252#5 372707393 372396764#3 372396764#4"/>
    </person>
    <person id="ped112" type="ped_pedestrian" depart="1322.49">
        <walk edges="-335765983#0 225466093#0 225466121#0 225466124#4 225466124#3 225466124#2 225466111#0 225466111#1 225571233#1 225476492#3 225476492#2 225476492#1 225476492#0"/>
    </person>
    <person id="ped114" type="ped_pedestrian" depart="1346.10">
        <walk edges="-563602559 225470262#0 225466115#3 225446893#0 585995063#4 585995063#3 585995065#0"/>
    </person>
    <person id="ped116" type="ped_pedestrian" depart="1369.72">
        <walk edges="225476497#1 225476493#0 225571226 225466111#1 225485353#0 225485353#1 225485348 225466132#0 225466088 225466090#1 225466083#0 225466105#2 225571232#0"/>
    </person>
    <person id="ped119" type="ped_pedestrian" depart="1405.14">
        <walk edges="225476497#1 225476493#0 225571226 225466111#2 225466111#3 372765901#0 372765901#1 372765901#2 225485361#5 225485361#4 225485361#3 225485361#2 225485361#1 225485361#0 225485338#0"/>
    </person>
    <person id="ped120" type="ped_pedestrian" depart="1416.95">
        <walk edges="225466110#3 225466110#4 225466108 225466098#1 225466097#4 225466097#3 225466097#2 225485350#2 225485327#1 -225477832#1 372765901#1 372765901#0 225466111#3 225466111#2 225571233#1 225476492#3 225476492#2 225476492#1 225476492#0"/>
    </person>
    <person id="ped122" type="ped_pedestrian" depart="1440.57">
        <walk edges="-563620281#0 563620281#1 563620281#2 335766023#1 -335765986#1 335765986#1"/>
    </person>
    <person id="ped123" type="ped_pedestrian" depart="1452.37">
        <walk edges="-585994314 1183056880#0 1183056880#1 543821136#1 543821136#0 225466102#6 225466117#0 225466117#1 225466117#2 225466117#3 225466100#0"/>
    </person>
    <person id="ped124" type="ped_pedestrian" depart="1464.18">
        <walk edges="225571229 225470240#3 225470243#0 225470267#0 225470267#1 1134398595#1 225466137#4 225466137#3 225466137#2 225466134 1134398607 1134398605#0"/>
    </person>
    <person id="ped125" type="ped_pedestrian" depart="1475.99">
        <walk edges="180244632#1 778437842#1 778437842#2 778437843#1 778437843#0 225470244#0 225470257 225470245#2 225470246#1 225470246#0 225470253#0 225470250#2 -225470252#5 -225470252#4 372707394"/>
    </person>
    <person id="ped126" type="ped_pedestrian" depart="1487.80">
        <walk edges="-372707394 -225470252#3 225470262#0 225466115#3 225446893#1 225446893#2 225466124#10 225466124#9 225466124#8 225466124#7 225466124#6 225466124#5 225466124#4"/>
    </person>
    <person id="ped131" type="ped_pedestrian" depart="1546.84">
        <walk edges="225466085 225466110#0 225470359#0 225470359#1 225470359#2 225571731 225470240#1 225470240#0 225470250#0 225470262#2 225470262#1 563602560#1 -563602559"/>
    </person>
    <person id="ped133" type="ped_pedestrian" depart="1570.45">
        <walk edges="225485333#1 225485333#0 225485362#0 225485362#1 225466102#1 225446903#1 225446903#0 1134398600#0 1134398600#4 225446902 225466110#1 225466110#0 225470359#0 225470359#1 225470359#2 225470358#0 778437851"/>
    </person>
    <person id="ped134" type="ped_pedestrian" depart="1582.26">
        <walk edges="225485361#5 225485361#4 225485361#3 225485361#2 225485361#1 225485361#0 225485338#0 517434099 225466100#0 225466117#3 -1134398611"/>
    </person>
    <person id="ped138" type="ped_pedestrian" depart="1629.49">
        <walk edges="-543914346#1 543914346#2 543914347 183191792#5 225485346#2 225485330#1 225485347#1 225485342 225485361#2 225485350#0 225485350#1 225466097#2 225466097#3 225466097#4 225466098#1 225466108 225466110#4 225466110#3 225466110#2 225466110#1 225466110#0 225470359#0 225470359#1 225470359#2 225470358#0 778437851 225470264#0"/>
    </person>
    <person id="ped140" type="ped_pedestrian" depart="1653.11">
        <walk edges="335765986#3 -335765986#2 -563620280"/>
    </person>
    <person id="ped141" type="ped_pedestrian" depart="1664.92">
        <walk edges="225485347#2 225485347#1 225485342 225485361#2 225485350#0 225485350#1 225466097#2 225466103 225466137#1 225466137#2 225466137#3 225466137#4 1134398595#1 225470267#1 225470267#0 225470243#0 225470240#3 225470240#2 225470240#1 225470240#0 225470250#1 -225470252#5 372707393 1050574260#0"/>
    </person>
    <person id="ped142" type="ped_pedestrian" depart="1676.73">
        <walk edges="225466137#2 1134398608#1 1134398608#0 225466099#1 225466096#3 225466129#1 225466129#0 225466083#0 225466083#1 225466094#3 225466094#2 225466122 225466124#8 -563602478 -563602666#0 -563620262 -563620263#0 563620263#0"/>
    </person>
    <person id="ped143" type="ped_pedestrian" depart="1688.53">
        <walk edges="563602516 -372715931#0 -1046388837#1 1085025207 372715929 -276157215#0 276157217 -276157217 276157215#0 415361889#0 415361889#1 415361889#2 -415361893#0"/>
    </person>
    <person id="ped144" type="ped_pedestrian" depart="1700.34">
        <walk edges="225466111#2 225466111#3 372765901#0 372765901#1 372765901#2 372765901#3 372765901#4 -183191774#0 -183191745#0 -585997479 -183191792#5 -183191792#4 -183191792#3 563602658 1050574279#4 1050574279#3"/>
    </person>
    <person id="ped145" type="ped_pedestrian" depart="1712.15">
        <walk edges="-1046388838#0 1046388838#1 1046388838#2 563602529 372715929 -276157215#0 276157217 -276157217 276157215#0 415361889#0"/>
    </person>
    <person id="ped147" type="ped_pedestrian" depart="1735.76">
        <walk edges="346382722#0 346382722#1 225470240#5 225470240#4 225470240#3 225571229 225470262#4"/>
    </person>
    <person id="ped148" type="ped_pedestrian" depart="1747.57">
        <walk edges="225466112#2 585995064#1 585995064#0 585995063#2 585995063#3 585995063#4 225446893#0 225466115#3 225470262#0 225470252#3 225470252#4 225470252#5 225470250#2 225470253#0 225470246#0 225470246#1 225470245#2 225470257 225470244#0 778437843#0 778437843#1 778437842#2 778437842#1 -180244632#1"/>
    </person>
    <person id="ped149" type="ped_pedestrian" depart="1759.38">
        <walk edges="-372715927#0 225470250#1 225470240#0 225470240#1 225470240#2 225470240#3 225470243#0 225470267#0 225470267#1 1134398595#1 225466137#4 225466137#3 225466137#2 225466137#1 225466103 225466097#2 225485350#1 225485350#0 225485361#2 225485342 225485347#1 225485330#1 225485346#2 -183191792#5 -183191792#4 -183191792#3 563602658 1050574279#4 1050574279#3 1050574279#2 -543914343#1 563602655"/>
    </person>
    <person id="ped150" type="ped_pedestrian" depart="1771.19">
        <walk edges="563620261 563620263#1 563602475#1 563602478 225466124#9 225466124#10 225446893#2 225446893#1 225466115#3 225470262#0 225470252#3 225470252#4 372707393 1050574260#0 225470274#1 225470274#2 1050574261#1 1050574261#0 225470265#2 225470265#1 225470236#0 225470236#1 225470236#2 225470236#3 225470258#1 225470258#0"/>
    </person>
    <person id="ped151" type="ped_pedestrian" depart="1783.00">
        <walk edges="563602459 -563602456 440267648#0 440267648#1 -837196485#3 837196488 -180244632#2 -180244632#1 778437842#1 778437842#2 778437843#1 778437843#0 225470244#0 225470257 225470245#2 225470246#1 225470237 225470236#0 225470236#1 225470236#2 225486058 225473463"/>
    </person>
    <person id="ped153" type="ped_pedestrian" depart="1806.61">
        <walk edges="1134398610 225485350#1 225466097#2 225466103 225466137#1 225466137#2 225466137#3 225466137#4 1134398595#1 225470267#1 225470267#0 225470243#0 225470240#3 225470240#2 225470240#1 225470240#0 225470250#1 -225470252#5 372707393 372396764#3 372396764#4 -563616187#1 563616187#1"/>
    </person>
    <person id="ped154" type="ped_pedestrian" depart="1818.42">
        <walk edges="543821137 225446903#1 225466116 225446899#0 225466079 225466128#2 225466128#3 225470244#4 225470244#3 225470244#2 778437844#0 778437844#1 778437842#1 180244632#1 180244632#2 180244632#3 563602541"/>
    </person>
    <person id="ped158" type="ped_pedestrian" depart="1865.65">
        <walk edges="225466102#5 225466102#4 225466102#3 225466100#5 225466100#4 225466100#3 225466100#2 225466100#1 517434099 225485338#0 225485361#0 225485347#2 225485330#0 225485346#0 225485339#0"/>
    </person>