<?xml version="1.0" encoding="UTF-8"?>

<!-- generated on 2025-03-02 09:02:42.451713 by osmWebWizard.py v1_21_0+0000-d7b3b481c43
<configuration>
    <net-file value="C:\Users\evans\Sumo\2025-03-02-09-02-35\osm.net.xml.gz"/>
    <output-trip-file value="C:\Users\evans\Sumo\2025-03-02-09-02-35\osm.motorcycle.trips.xml"/>
    <route-file value="C:\Users\evans\Sumo\2025-03-02-09-02-35\osm.motorcycle.rou.xml"/>
    <prefix value="motorcycle"/>
    <trip-attributes value="departLane=&quot;best&quot;"/>
    <fringe-start-attributes value="departSpeed=&quot;max&quot;"/>
    <vehicle-class value="motorcycle"/>
    <fringe-factor value="2"/>
    <vclass value="motorcycle"/>
    <via-edge-types value="highway.motorway,highway.motorway_link,highway.trunk_link,highway.primary_link,highway.secondary_link,highway.tertiary_link"/>
    <max-distance value="1200.0"/>
    <remove-loops value="True"/>
    <validate value="True"/>
    <end value="86400.0"/>
    <insertion-density value="4.0"/>
</configuration>
-->

<!-- generated on 2025-03-02 09:02:42 by Eclipse SUMO duarouter Version 1.21.0
<duarouterConfiguration xmlns:xsi="http://www.w3.org/2001/XMLSchema-instance" xsi:noNamespaceSchemaLocation="http://sumo.dlr.de/xsd/duarouterConfiguration.xsd">

    <input>
        <net-file value="C:\Users\evans\Sumo\2025-03-02-09-02-35\osm.net.xml.gz"/>
        <route-files value="C:\Users\evans\Sumo\2025-03-02-09-02-35\osm.motorcycle.trips.xml"/>
    </input>

    <output>
        <output-file value="C:\Users\evans\Sumo\2025-03-02-09-02-35\osm.motorcycle.trips.xml.tmp"/>
        <alternatives-output value="NUL"/>
        <write-trips value="true"/>
    </output>

    <processing>
        <remove-loops value="true"/>
    </processing>

    <time>
        <begin value="0.0"/>
        <end value="86400.0"/>
    </time>

    <report>
        <no-warnings value="true"/>
        <ignore-errors value="true"/>
        <no-step-log value="true"/>
    </report>

</duarouterConfiguration>
-->

<routes xmlns:xsi="http://www.w3.org/2001/XMLSchema-instance" xsi:noNamespaceSchemaLocation="http://sumo.dlr.de/xsd/routes_file.xsd">
    <vType id="motorcycle_motorcycle" vClass="motorcycle"/>
    <trip id="motorcycle0" type="motorcycle_motorcycle" depart="0.00" departLane="best" from="551576182" to="-180244636#2"/>
    <trip id="motorcycle1" type="motorcycle_motorcycle" depart="61.15" departLane="best" from="-586413246#2" to="-586077896#3"/>
    <trip id="motorcycle3" type="motorcycle_motorcycle" depart="183.45" departLane="best" departSpeed="max" from="631653305" to="276157215#1"/>
    <trip id="motorcycle4" type="motorcycle_motorcycle" depart="244.60" departLane="best" from="-9152018#1" to="-180244636#3"/>
    <trip id="motorcycle5" type="motorcycle_motorcycle" depart="305.75" departLane="best" from="586077896#3" to="180244639#1"/>
    <trip id="motorcycle6" type="motorcycle_motorcycle" depart="366.90" departLane="best" from="180244636#2" to="-568382083#1"/>
    <trip id="motorcycle7" type="motorcycle_motorcycle" depart="428.05" departLane="best" from="565255792#2" to="273902603"/>
    <trip id="motorcycle8" type="motorcycle_motorcycle" depart="489.20" departLane="best" from="-586077896#3" to="-287145656#3"/>
    <trip id="motorcycle9" type="motorcycle_motorcycle" depart="550.35" departLane="best" from="586413246#3" to="-1339425865#0"/>
    <trip id="motorcycle10" type="motorcycle_motorcycle" depart="611.50" departLane="best" from="586413246#3" to="565255792#6"/>
    <trip id="motorcycle11" type="motorcycle_motorcycle" depart="672.65" departLane="best" from="656443274#2" to="540665092#1"/>
    <trip id="motorcycle12" type="motorcycle_motorcycle" depart="733.81" departLane="best" from="-9142394#1" to="-656443273"/>
    <trip id="motorcycle13" type="motorcycle_motorcycle" depart="794.96" departLane="best" from="276157215#0" to="276157215#3"/>
    <trip id="motorcycle16" type="motorcycle_motorcycle" depart="978.41" departLane="best" from="276157215#3" to="9151585#3"/>
    <trip id="motorcycle17" type="motorcycle_motorcycle" depart="1039.56" departLane="best" departSpeed="max" from="-9142394#1" to="276157215#1"/>
    <trip id="motorcycle18" type="motorcycle_motorcycle" depart="1100.71" departLane="best" from="586413246#8" to="-540665092#0"/>
    <trip id="motorcycle19" type="motorcycle_motorcycle" depart="1161.86" departLane="best" from="586413259#2" to="276157215#6"/>
    <trip id="motorcycle20" type="motorcycle_motorcycle" depart="1223.01" departLane="best" from="568382083#2" to="-180244636#6"/>
    <trip id="motorcycle21" type="motorcycle_motorcycle" depart="1284.16" departLane="best" from="586413246#0" to="586413246#4"/>
    <trip id="motorcycle22" type="motorcycle_motorcycle" depart="1345.31" departLane="best" from="-180244652#0" to="-586413246#0"/>
    <trip id="motorcycle23" type="motorcycle_motorcycle" depart="1406.46" departLane="best" from="-276157215#2" to="586413246#2"/>
    <trip id="motorcycle24" type="motorcycle_motorcycle" depart="1467.61" departLane="best" from="551576182" to="656443274#5"/>
    <trip id="motorcycle25" type="motorcycle_motorcycle" depart="1528.76" departLane="best" from="-9142394#0" to="-568382083#3"/>
    <trip id="motorcycle26" type="motorcycle_motorcycle" depart="1589.91" departLane="best" from="586413246#17" to="-656443274#6"/>
    <trip id="motorcycle29" type="motorcycle_motorcycle" depart="1773.36" departLane="best" from="540665092#1" to="-9129472"/>
    <trip id="motorcycle30" type="motorcycle_motorcycle" depart="1834.51" departLane="best" from="-9151585#6" to="-540665092#4"/>
    <trip id="motorcycle31" type="motorcycle_motorcycle" depart="1895.66" departLane="best" from="276157217" to="586413266#3"/>
    <trip id="motorcycle32" type="motorcycle_motorcycle" depart="1956.81" departLane="best" from="-586413249#0" to="586413246#12"/>
    <trip id="motorcycle33" type="motorcycle_motorcycle" depart="2017.96" departLane="best" from="586413246#0" to="-180244636#3"/>
    <trip id="motorcycle34" type="motorcycle_motorcycle" depart="2079.12" departLane="best" from="586413249#1" to="-586413246#16"/>
    <trip id="motorcycle35" type="motorcycle_motorcycle" depart="2140.27" departLane="best" from="586077896#0" to="-9129472"/>
    <trip id="motorcycle36" type="motorcycle_motorcycle" depart="2201.42" departLane="best" from="565255792#6" to="-586413249#0"/>
    <trip id="motorcycle37" type="motorcycle_motorcycle" depart="2262.57" departLane="best" from="565255792#3" to="9151585#1"/>
    <trip id="motorcycle38" type="motorcycle_motorcycle" depart="2323.72" departLane="best" from="656443274#1" to="-180244636#0"/>
    <trip id="motorcycle39" type="motorcycle_motorcycle" depart="2384.87" departLane="best" from="-586413246#16" to="-586413246#12"/>
    <trip id="motorcycle40" type="motorcycle_motorcycle" depart="2446.02" departLane="best" departSpeed="max" from="276157224#0" to="-586413246#15"/>
    <trip id="motorcycle41" type="motorcycle_motorcycle" depart="2507.17" departLane="best" departSpeed="max" from="423654395" to="565255792#7"/>
    <trip id="motorcycle42" type="motorcycle_motorcycle" depart="2568.32" departLane="best" from="-9151585#3" to="-586077896#1"/>
    <trip id="motorcycle43" type="motorcycle_motorcycle" depart="2629.47" departLane="best" from="-9152018#1" to="180244639#2"/>
    <trip id="motorcycle44" type="motorcycle_motorcycle" depart="2690.62" departLane="best" from="-276157215#0" to="-180244636#6"/>
    <trip id="motorcycle45" type="motorcycle_motorcycle" depart="2751.77" departLane="best" from="-276157215#4" to="-540665092#2"/>
    <trip id="motorcycle46" type="motorcycle_motorcycle" depart="2812.92" departLane="best" from="586413246#17" to="9152018#0"/>
    <trip id="motorcycle47" type="motorcycle_motorcycle" depart="2874.07" departLane="best" from="-180244639#1" to="-9129472"/>
    <trip id="motorcycle48" type="motorcycle_motorcycle" depart="2935.22" departLane="best" from="-9152018#1" to="180244652#2"/>
    <trip id="motorcycle49" type="motorcycle_motorcycle" depart="2996.37" departLane="best" from="-9151585#2" to="586413259#0"/>
    <trip id="motorcycle50" type="motorcycle_motorcycle" depart="3057.52" departLane="best" from="1339425865#1" to="-568382083#2"/>
    <trip id="motorcycle51" type="motorcycle_motorcycle" depart="3118.67" departLane="best" from="-565255794" to="273902603"/>
    <trip id="motorcycle52" type="motorcycle_motorcycle" depart="3179.82" departLane="best" from="586413246#17" to="-540665092#4"/>
    <trip id="motorcycle53" type="motorcycle_motorcycle" depart="3240.97" departLane="best" from="-276157215#4" to="-1315084524"/>
    <trip id="motorcycle54" type="motorcycle_motorcycle" depart="3302.12" departLane="best" from="586413266#1" to="-586413246#16"/>
    <trip id="motorcycle55" type="motorcycle_motorcycle" depart="3363.27" departLane="best" from="-180244639#1" to="-565255794"/>
    <trip id="motorcycle56" type="motorcycle_motorcycle" depart="3424.42" departLane="best" from="656443274#1" to="586413259#2"/>
    <trip id="motorcycle57" type="motorcycle_motorcycle" depart="3485.58" departLane="best" from="-586413246#6" to="-540665092#4"/>
    <trip id="motorcycle58" type="motorcycle_motorcycle" depart="3546.73" departLane="best" departSpeed="max" from="533664762" to="540665092#0"/>
    <trip id="motorcycle59" type="motorcycle_motorcycle" depart="3607.88" departLane="best" from="586413246#1" to="273902603"/>
    <trip id="motorcycle60" type="motorcycle_motorcycle" depart="3669.03" departLane="best" from="586413246#14" to="180244652#2"/>
    <trip id="motorcycle61" type="motorcycle_motorcycle" depart="3730.18" departLane="best" from="1315084524" to="531094133#1"/>
    <trip id="motorcycle62" type="motorcycle_motorcycle" depart="3791.33" departLane="best" from="180244636#1" to="-656443274#5"/>
    <trip id="motorcycle63" type="motorcycle_motorcycle" depart="3852.48" departLane="best" from="565255792#5" to="586413246#6"/>
    <trip id="motorcycle64" type="motorcycle_motorcycle" depart="3913.63" departLane="best" from="586413246#8" to="180244639#0"/>
    <trip id="motorcycle65" type="motorcycle_motorcycle" depart="3974.78" departLane="best" from="565255792#5" to="-9129472"/>
    <trip id="motorcycle66" type="motorcycle_motorcycle" depart="4035.93" departLane="best" from="-180244652#3" to="-180244636#6"/>
    <trip id="motorcycle67" type="motorcycle_motorcycle" depart="4097.08" departLane="best" departSpeed="max" from="-180244639#2" to="-586077896#3"/>
    <trip id="motorcycle68" type="motorcycle_motorcycle" depart="4158.23" departLane="best" from="586413246#11" to="-276157224#1"/>
    <trip id="motorcycle69" type="motorcycle_motorcycle" depart="4219.38" departLane="best" from="180244636#5" to="276157215#0"/>
    <trip id="motorcycle70" type="motorcycle_motorcycle" depart="4280.53" departLane="best" from="-586413246#16" to="586413259#3"/>
    <trip id="motorcycle71" type="motorcycle_motorcycle" depart="4341.68" departLane="best" from="-9152018#1" to="-586077896#0"/>
    <trip id="motorcycle73" type="motorcycle_motorcycle" depart="4463.98" departLane="best" from="568382083#2" to="-586413249#0"/>
    <trip id="motorcycle74" type="motorcycle_motorcycle" depart="4525.13" departLane="best" from="-9152018#0" to="551574176#0"/>
    <trip id="motorcycle75" type="motorcycle_motorcycle" depart="4586.28" departLane="best" from="1339425865#1" to="180244645"/>
    <trip id="motorcycle76" type="motorcycle_motorcycle" depart="4647.43" departLane="best" from="-276157215#6" to="-586077896#3"/>
    <trip id="motorcycle77" type="motorcycle_motorcycle" depart="4708.58" departLane="best" from="-656443274#2" to="-287145656#2"/>
    <trip id="motorcycle78" type="motorcycle_motorcycle" depart="4769.73" departLane="best" from="-586413246#0" to="-586077896#3"/>
    <trip id="motorcycle79" type="motorcycle_motorcycle" depart="4830.89" departLane="best" departSpeed="max" from="-180244639#2" to="-540665092#2"/>
    <trip id="motorcycle80" type="motorcycle_motorcycle" depart="4892.04" departLane="best" from="-586413246#0" to="-656443274#0"/>
    <trip id="motorcycle81" type="motorcycle_motorcycle" depart="4953.19" departLane="best" from="586413259#2" to="180244652#0"/>
    <trip id="motorcycle82" type="motorcycle_motorcycle" depart="5014.34" departLane="best" from="586413246#11" to="565255792#0"/>
    <trip id="motorcycle83" type="motorcycle_motorcycle" depart="5075.49" departLane="best" from="-586077896#1" to="-287145656#2"/>
    <trip id="motorcycle84" type="motorcycle_motorcycle" depart="5136.64" departLane="best" from="656443274#6" to="276157215#5"/>
    <trip id="motorcycle85" type="motorcycle_motorcycle" depart="5197.79" departLane="best" from="180244636#4" to="586413246#13"/>
    <trip id="motorcycle87" type="motorcycle_motorcycle" depart="5320.09" departLane="best" from="-276157215#1" to="-1315084524"/>
    <trip id="motorcycle88" type="motorcycle_motorcycle" depart="5381.24" departLane="best" from="-9152018#1" to="-180244636#2"/>
    <trip id="motorcycle90" type="motorcycle_motorcycle" depart="5503.54" departLane="best" from="-9151585#5" to="-276157215#3"/>
    <trip id="motorcycle91" type="motorcycle_motorcycle" depart="5564.69" departLane="best" from="-9151585#3" to="-656443273"/>
    <trip id="motorcycle92" type="motorcycle_motorcycle" depart="5625.84" departLane="best" from="586413259#2" to="-586413246#12"/>
    <trip id="motorcycle93" type="motorcycle_motorcycle" depart="5686.99" departLane="best" from="568382083#0" to="169152446#0"/>
    <trip id="motorcycle94" type="motorcycle_motorcycle" depart="5748.14" departLane="best" from="-9152018#1" to="586413246#2"/>
    <trip id="motorcycle95" type="motorcycle_motorcycle" depart="5809.29" departLane="best" from="586413246#13" to="-656443274#3"/>
    <trip id="motorcycle97" type="motorcycle_motorcycle" depart="5931.59" departLane="best" from="-276157215#6" to="180244637#0"/>
    <trip id="motorcycle98" type="motorcycle_motorcycle" depart="5992.74" departLane="best" from="-9152018#1" to="586413246#7"/>
    <trip id="motorcycle99" type="motorcycle_motorcycle" depart="6053.89" departLane="best" from="-9151585#2" to="-656443274#4"/>
    <trip id="motorcycle100" type="motorcycle_motorcycle" depart="6115.04" departLane="best" from="586413259#0" to="-540665092#3"/>
    <trip id="motorcycle101" type="motorcycle_motorcycle" depart="6176.19" departLane="best" from="180244637#0" to="-586077896#0"/>
    <trip id="motorcycle102" type="motorcycle_motorcycle" depart="6237.35" departLane="best" from="-9151585#3" to="180244639#0"/>
    <trip id="motorcycle103" type="motorcycle_motorcycle" depart="6298.50" departLane="best" departSpeed="max" from="-9142394#1" to="9151585#5"/>
    <trip id="motorcycle104" type="motorcycle_motorcycle" depart="6359.65" departLane="best" from="-586413246#16" to="-586413246#13"/>
    <trip id="motorcycle105" type="motorcycle_motorcycle" depart="6420.80" departLane="best" from="180244636#1" to="9152018#0"/>
    <trip id="motorcycle106" type="motorcycle_motorcycle" depart="6481.95" departLane="best" from="-9142394#1" to="9152018#1"/>
    <trip id="motorcycle107" type="motorcycle_motorcycle" depart="6543.10" departLane="best" from="276157217" to="-568382083#2"/>
    <trip id="motorcycle109" type="motorcycle_motorcycle" depart="6665.40" departLane="best" from="-9151585#2" to="276157217"/>
    <trip id="motorcycle110" type="motorcycle_motorcycle" depart="6726.55" departLane="best" from="-276157215#4" to="-586077896#0"/>
    <trip id="motorcycle111" type="motorcycle_motorcycle" depart="6787.70" departLane="best" from="-180244639#0" to="-287145656#2"/>
    <trip id="motorcycle113" type="motorcycle_motorcycle" depart="6910.00" departLane="best" from="540665092#0" to="9151585#0"/>
    <trip id="motorcycle116" type="motorcycle_motorcycle" depart="7093.45" departLane="best" from="-586413246#1" to="-276157224#1"/>
    <trip id="motorcycle117" type="motorcycle_motorcycle" depart="7154.60" departLane="best" from="586413267#1" to="-586413246#12"/>
    <trip id="motorcycle119" type="motorcycle_motorcycle" depart="7276.90" departLane="best" from="-9152018#0" to="276157217"/>
    <trip id="motorcycle120" type="motorcycle_motorcycle" depart="7338.05" departLane="best" from="-276157215#0" to="-656443274#6"/>
    <trip id="motorcycle121" type="motorcycle_motorcycle" depart="7399.20" departLane="best" from="-568382083#3" to="-568382083#1"/>
    <trip id="motorcycle122" type="motorcycle_motorcycle" depart="7460.35" departLane="best" from="-586413246#11" to="9151585#1"/>
    <trip id="motorcycle123" type="motorcycle_motorcycle" depart="7521.50" departLane="best" from="565255792#6" to="586413246#6"/>
    <trip id="motorcycle124" type="motorcycle_motorcycle" depart="7582.66" departLane="best" from="586413249#1" to="-586077896#1"/>
    <trip id="motorcycle125" type="motorcycle_motorcycle" depart="7643.81" departLane="best" departSpeed="max" from="-180244639#2" to="180244636#0"/>
    <trip id="motorcycle126" type="motorcycle_motorcycle" depart="7704.96" departLane="best" from="9152018#1" to="9152018#1"/>
    <trip id="motorcycle127" type="motorcycle_motorcycle" depart="7766.11" departLane="best" departSpeed="max" from="-180244639#2" to="-586077896#0"/>
    <trip id="motorcycle128" type="motorcycle_motorcycle" depart="7827.26" departLane="best" from="586413246#16" to="-656443274#6"/>
    <trip id="motorcycle129" type="motorcycle_motorcycle" depart="7888.41" departLane="best" from="565255792#5" to="586413263#1"/>
    <trip id="motorcycle130" type="motorcycle_motorcycle" depart="7949.56" departLane="best" from="9129472" to="-540665092#1"/>
    <trip id="motorcycle131" type="motorcycle_motorcycle" depart="8010.71" departLane="best" from="586413246#8" to="565255794"/>
    <trip id="motorcycle132" type="motorcycle_motorcycle" depart="8071.86" departLane="best" from="540665092#0" to="9151585#6"/>
    <trip id="motorcycle133" type="motorcycle_motorcycle" depart="8133.01" departLane="best" from="565255792#2" to="-1339425865#0"/>
    <trip id="motorcycle134" type="motorcycle_motorcycle" depart="8194.16" departLane="best" from="586413246#5" to="586413246#6"/>
    <trip id="motorcycle135" type="motorcycle_motorcycle" depart="8255.31" departLane="best" from="586413266#3" to="-656443275"/>
    <trip id="motorcycle136" type="motorcycle_motorcycle" depart="8316.46" departLane="best" from="287145656#3" to="-276157217"/>
    <trip id="motorcycle137" type="motorcycle_motorcycle" depart="8377.61" departLane="best" from="-276157215#3" to="-276157215#1"/>
    <trip id="motorcycle139" type="motorcycle_motorcycle" depart="8499.91" departLane="best" departSpeed="max" from="586002130#0" to="-568382083#2"/>
    <trip id="motorcycle140" type="motorcycle_motorcycle" depart="8561.06" departLane="best" from="540665092#4" to="-586413246#16"/>
    <trip id="motorcycle141" type="motorcycle_motorcycle" depart="8622.21" departLane="best" from="180244637#1" to="-656443274#0"/>
    <trip id="motorcycle142" type="motorcycle_motorcycle" depart="8683.36" departLane="best" from="586413256" to="276157215#2"/>
    <trip id="motorcycle143" type="motorcycle_motorcycle" depart="8744.51" departLane="best" from="-9152018#1" to="-586413246#18"/>
    <trip id="motorcycle144" type="motorcycle_motorcycle" depart="8805.66" departLane="best" from="1315084524" to="586413246#11"/>
    <trip id="motorcycle145" type="motorcycle_motorcycle" depart="8866.81" departLane="best" from="551576182" to="-586413246#15"/>
    <trip id="motorcycle146" type="motorcycle_motorcycle" depart="8927.96" departLane="best" from="586077896#0" to="276157215#1"/>
    <trip id="motorcycle147" type="motorcycle_motorcycle" depart="8989.12" departLane="best" from="1315084524" to="-1339425865#1"/>
    <trip id="motorcycle148" type="motorcycle_motorcycle" depart="9050.27" departLane="best" departSpeed="max" from="-180244639#2" to="586413266#1"/>
    <trip id="motorcycle149" type="motorcycle_motorcycle" depart="9111.42" departLane="best" from="656443273" to="276157215#0"/>
    <trip id="motorcycle150" type="motorcycle_motorcycle" depart="9172.57" departLane="best" from="-586413249#1" to="-276157217"/>
    <trip id="motorcycle152" type="motorcycle_motorcycle" depart="9294.87" departLane="best" from="586413254#1" to="586413267#1"/>
    <trip id="motorcycle153" type="motorcycle_motorcycle" depart="9356.02" departLane="best" from="586413246#17" to="586413259#0"/>
    <trip id="motorcycle154" type="motorcycle_motorcycle" depart="9417.17" departLane="best" departSpeed="max" from="631653305" to="-568382083#3"/>
    <trip id="motorcycle155" type="motorcycle_motorcycle" depart="9478.32" departLane="best" from="-586413246#13" to="276157215#4"/>
    <trip id="motorcycle156" type="motorcycle_motorcycle" depart="9539.47" departLane="best" from="586413246#14" to="565255792#6"/>
    <trip id="motorcycle157" type="motorcycle_motorcycle" depart="9600.62" departLane="best" from="-9151585#4" to="-540665092#0"/>
    <trip id="motorcycle159" type="motorcycle_motorcycle" depart="9722.92" departLane="best" from="586413259#3" to="9151585#4"/>
    <trip id="motorcycle160" type="motorcycle_motorcycle" depart="9784.07" departLane="best" from="-586413246#4" to="586413266#1"/>
    <trip id="motorcycle161" type="motorcycle_motorcycle" depart="9845.22" departLane="best" from="180244636#2" to="586002131#0"/>
    <trip id="motorcycle162" type="motorcycle_motorcycle" depart="9906.37" departLane="best" from="656443274#1" to="656443274#5"/>
    <trip id="motorcycle163" type="motorcycle_motorcycle" depart="9967.52" departLane="best" from="-586413246#2" to="586413259#1"/>
    <trip id="motorcycle164" type="motorcycle_motorcycle" depart="10028.67" departLane="best" from="586413246#4" to="586413246#16"/>
    <trip id="motorcycle165" type="motorcycle_motorcycle" depart="10089.82" departLane="best" from="586413246#16" to="276157215#5"/>
    <trip id="motorcycle166" type="motorcycle_motorcycle" depart="10150.97" departLane="best" from="586413266#1" to="586413259#0"/>
    <trip id="motorcycle167" type="motorcycle_motorcycle" depart="10212.12" departLane="best" from="586077896#3" to="586413246#3"/>
    <trip id="motorcycle168" type="motorcycle_motorcycle" depart="10273.27" departLane="best" from="180244636#2" to="-586413246#7"/>
    <trip id="motorcycle169" type="motorcycle_motorcycle" depart="10334.42" departLane="best" from="-586413246#17" to="-586080837"/>
    <trip id="motorcycle170" type="motorcycle_motorcycle" depart="10395.58" departLane="best" from="180244636#1" to="-568382083#0"/>
    <trip id="motorcycle171" type="motorcycle_motorcycle" depart="10456.73" departLane="best" from="656443274#0" to="586413259#1"/>
    <trip id="motorcycle172" type="motorcycle_motorcycle" depart="10517.88" departLane="best" from="-9151585#2" to="586413246#2"/>
    <trip id="motorcycle173" type="motorcycle_motorcycle" depart="10579.03" departLane="best" from="565255792#0" to="9151585#2"/>
    <trip id="motorcycle174" type="motorcycle_motorcycle" depart="10640.18" departLane="best" from="-9151585#5" to="273902603"/>
    <trip id="motorcycle175" type="motorcycle_motorcycle" depart="10701.33" departLane="best" from="656443275" to="-276157217"/>
    <trip id="motorcycle176" type="motorcycle_motorcycle" depart="10762.48" departLane="best" from="-9151585#2" to="-565255794"/>
    <trip id="motorcycle177" type="motorcycle_motorcycle" depart="10823.63" departLane="best" from="-9151585#1" to="-586413246#16"/>
    <trip id="motorcycle178" type="motorcycle_motorcycle" depart="10884.78" departLane="best" from="-276157215#3" to="-1315084524"/>
    <trip id="motorcycle180" type="motorcycle_motorcycle" depart="11007.08" departLane="best" departSpeed="max" from="533664762" to="180244639#2"/>
    <trip id="motorcycle181" type="motorcycle_motorcycle" depart="11068.23" departLane="best" from="-9151585#0" to="276157215#6"/>
    <trip id="motorcycle182" type="motorcycle_motorcycle" depart="11129.38" departLane="best" from="586413246#14" to="-568382083#0"/>
    <trip id="motorcycle183" type="motorcycle_motorcycle" depart="11190.53" departLane="best" from="1315084524" to="-656443274#4"/>
    <trip id="motorcycle184" type="motorcycle_motorcycle" depart="11251.68" departLane="best" from="-276157215#3" to="-568382083#2"/>
    <trip id="motorcycle185" type="motorcycle_motorcycle" depart="11312.83" departLane="best" from="586077896#0" to="565255792#1"/>
    <trip id="motorcycle186" type="motorcycle_motorcycle" depart="11373.98" departLane="best" from="656443275" to="-180244652#0"/>
    <trip id="motorcycle187" type="motorcycle_motorcycle" depart="11435.13" departLane="best" from="586413266#2" to="-631653305"/>
    <trip id="motorcycle188" type="motorcycle_motorcycle" depart="11496.28" departLane="best" from="-586413249#1" to="-586413249#0"/>
    <trip id="motorcycle189" type="motorcycle_motorcycle" depart="11557.43" departLane="best" departSpeed="max" from="586002130#0" to="586413246#6"/>
    <trip id="motorcycle190" type="motorcycle_motorcycle" depart="11618.58" departLane="best" from="-586413249#0" to="9151585#4"/>
    <trip id="motorcycle191" type="motorcycle_motorcycle" depart="11679.73" departLane="best" from="-9151585#3" to="586413246#5"/>
    <trip id="motorcycle192" type="motorcycle_motorcycle" depart="11740.89" departLane="best" from="-276157217" to="9151585#6"/>
    <trip id="motorcycle193" type="motorcycle_motorcycle" depart="11802.04" departLane="best" from="656443275" to="565255792#2"/>
    <trip id="motorcycle194" type="motorcycle_motorcycle" depart="11863.19" departLane="best" from="656443273" to="-586413254#0"/>
    <trip id="motorcycle195" type="motorcycle_motorcycle" depart="11924.34" departLane="best" from="-586413246#7" to="276157215#0"/>
    <trip id="motorcycle196" type="motorcycle_motorcycle" depart="11985.49" departLane="best" from="1315084524" to="586413246#3"/>
    <trip id="motorcycle197" type="motorcycle_motorcycle" depart="12046.64" departLane="best" from="1315084524" to="-276157217"/>
    <trip id="motorcycle198" type="motorcycle_motorcycle" depart="12107.79" departLane="best" from="565255792#3" to="-180244636#2"/>
    <trip id="motorcycle200" type="motorcycle_motorcycle" depart="12230.09" departLane="best" from="180244636#4" to="-656443273"/>
    <trip id="motorcycle201" type="motorcycle_motorcycle" depart="12291.24" departLane="best" from="586413246#17" to="-540665092#4"/>
    <trip id="motorcycle202" type="motorcycle_motorcycle" depart="12352.39" departLane="best" from="-180244652#2" to="180244639#2"/>
    <trip id="motorcycle203" type="motorcycle_motorcycle" depart="12413.54" departLane="best" from="-540665092#4" to="-656443273"/>
    <trip id="motorcycle204" type="motorcycle_motorcycle" depart="12474.69" departLane="best" from="586413246#5" to="-586077896#0"/>
    <trip id="motorcycle205" type="motorcycle_motorcycle" depart="12535.84" departLane="best" from="586413266#1" to="-586077896#3"/>
    <trip id="motorcycle206" type="motorcycle_motorcycle" depart="12596.99" departLane="best" from="568382083#2" to="-180244636#2"/>
    <trip id="motorcycle207" type="motorcycle_motorcycle" depart="12658.14" departLane="best" from="-586413246#12" to="-180244636#4"/>
    <trip id="motorcycle208" type="motorcycle_motorcycle" depart="12719.29" departLane="best" from="586413259#0" to="180244652#2"/>
    <trip id="motorcycle209" type="motorcycle_motorcycle" depart="12780.44" departLane="best" from="-9151585#6" to="-540665092#2"/>
    <trip id="motorcycle210" type="motorcycle_motorcycle" depart="12841.59" departLane="best" from="568382083#1" to="565255792#6"/>
    <trip id="motorcycle211" type="motorcycle_motorcycle" depart="12902.74" departLane="best" from="-180244639#0" to="586413246#11"/>
    <trip id="motorcycle212" type="motorcycle_motorcycle" depart="12963.89" departLane="best" from="565255792#3" to="-1339425865#0"/>
    <trip id="motorcycle213" type="motorcycle_motorcycle" depart="13025.04" departLane="best" from="586077896#3" to="586413246#1"/>
    <trip id="motorcycle214" type="motorcycle_motorcycle" depart="13086.19" departLane="best" from="-276157215#3" to="9152018#0"/>
    <trip id="motorcycle215" type="motorcycle_motorcycle" depart="13147.35" departLane="best" from="540665092#4" to="9151585#0"/>
    <trip id="motorcycle216" type="motorcycle_motorcycle" depart="13208.50" departLane="best" from="-180244652#3" to="-180244637#0"/>
    <trip id="motorcycle217" type="motorcycle_motorcycle" depart="13269.65" departLane="best" from="-586413246#13" to="586413254#1"/>
    <trip id="motorcycle218" type="motorcycle_motorcycle" depart="13330.80" departLane="best" from="180244636#1" to="586413246#17"/>
    <trip id="motorcycle219" type="motorcycle_motorcycle" depart="13391.95" departLane="best" from="565255792#5" to="9151585#6"/>
    <trip id="motorcycle221" type="motorcycle_motorcycle" depart="13514.25" departLane="best" departSpeed="max" from="631653305" to="-586413254#0"/>
    <trip id="motorcycle222" type="motorcycle_motorcycle" depart="13575.40" departLane="best" departSpeed="max" from="586002130#0" to="180244639#1"/>
    <trip id="motorcycle223" type="motorcycle_motorcycle" depart="13636.55" departLane="best" from="-586413246#8" to="276157215#0"/>
    <trip id="motorcycle224" type="motorcycle_motorcycle" depart="13697.70" departLane="best" departSpeed="max" from="631653305" to="586002131#2"/>
    <trip id="motorcycle225" type="motorcycle_motorcycle" depart="13758.85" departLane="best" from="180244636#5" to="586413246#15"/>
    <trip id="motorcycle226" type="motorcycle_motorcycle" depart="13820.00" departLane="best" from="586413246#13" to="-540665092#4"/>
    <trip id="motorcycle227" type="motorcycle_motorcycle" depart="13881.15" departLane="best" from="586413246#11" to="180244645"/>
    <trip id="motorcycle228" type="motorcycle_motorcycle" depart="13942.30" departLane="best" from="540665092#3" to="-586413246#18"/>
    <trip id="motorcycle229" type="motorcycle_motorcycle" depart="14003.45" departLane="best" from="-180244652#0" to="-586413246#3"/>