<?xml version="1.0" encoding="UTF-8"?>

<!-- generated on 2025-03-03 18:44:05.497630 by osmWebWizard.py v1_21_0+0000-d7b3b481c43
<configuration>
    <net-file value="C:\Users\evans\Sumo\2025-03-03-18-43-58\osm.net.xml.gz"/>
    <output-trip-file value="C:\Users\evans\Sumo\2025-03-03-18-43-58\osm.motorcycle.trips.xml"/>
    <route-file value="C:\Users\evans\Sumo\2025-03-03-18-43-58\osm.motorcycle.rou.xml"/>
    <prefix value="motorcycle"/>
    <trip-attributes value="departLane=&quot;best&quot;"/>
    <fringe-start-attributes value="departSpeed=&quot;max&quot;"/>
    <vehicle-class value="motorcycle"/>
    <fringe-factor value="2"/>
    <vclass value="motorcycle"/>
    <via-edge-types value="highway.motorway,highway.motorway_link,highway.trunk_link,highway.primary_link,highway.secondary_link,highway.tertiary_link"/>
    <max-distance value="1200.0"/>
    <remove-loops value="True"/>
    <validate value="True"/>
    <end value="86400.0"/>
    <insertion-density value="4.0"/>
</configuration>
-->

<!-- generated on 2025-03-03 18:44:05 by Eclipse SUMO duarouter Version 1.21.0
<duarouterConfiguration xmlns:xsi="http://www.w3.org/2001/XMLSchema-instance" xsi:noNamespaceSchemaLocation="http://sumo.dlr.de/xsd/duarouterConfiguration.xsd">

    <input>
        <net-file value="C:\Users\evans\Sumo\2025-03-03-18-43-58\osm.net.xml.gz"/>
        <route-files value="C:\Users\evans\Sumo\2025-03-03-18-43-58\osm.motorcycle.trips.xml"/>
    </input>

    <output>
        <output-file value="C:\Users\evans\Sumo\2025-03-03-18-43-58\osm.motorcycle.trips.xml.tmp"/>
        <alternatives-output value="NUL"/>
        <write-trips value="true"/>
    </output>

    <processing>
        <remove-loops value="true"/>
    </processing>

    <time>
        <begin value="0.0"/>
        <end value="86400.0"/>
    </time>

    <report>
        <no-warnings value="true"/>
        <ignore-errors value="true"/>
        <no-step-log value="true"/>
    </report>

</duarouterConfiguration>
-->

<routes xmlns:xsi="http://www.w3.org/2001/XMLSchema-instance" xsi:noNamespaceSchemaLocation="http://sumo.dlr.de/xsd/routes_file.xsd">
    <vType id="motorcycle_motorcycle" vClass="motorcycle"/>
    <trip id="motorcycle0" type="motorcycle_motorcycle" depart="0.00" departLane="best" from="-540665092#0" to="-1339425865#0"/>
    <trip id="motorcycle1" type="motorcycle_motorcycle" depart="46.74" departLane="best" from="-586413249#0" to="-586080837"/>
    <trip id="motorcycle2" type="motorcycle_motorcycle" depart="93.48" departLane="best" from="568382083#1" to="551574173"/>
    <trip id="motorcycle3" type="motorcycle_motorcycle" depart="140.23" departLane="best" from="-656443274#4" to="276157215#3"/>
    <trip id="motorcycle4" type="motorcycle_motorcycle" depart="186.97" departLane="best" departSpeed="max" from="1209313234" to="-180244636#0"/>
    <trip id="motorcycle5" type="motorcycle_motorcycle" depart="233.71" departLane="best" from="-586080837" to="180244639#2"/>
    <trip id="motorcycle6" type="motorcycle_motorcycle" depart="280.45" departLane="best" from="180244636#1" to="-568382083#0"/>
    <trip id="motorcycle7" type="motorcycle_motorcycle" depart="327.19" departLane="best" from="-586413246#0" to="287145656#0"/>
    <trip id="motorcycle8" type="motorcycle_motorcycle" depart="373.93" departLane="best" from="586413246#18" to="1315084524"/>
    <trip id="motorcycle9" type="motorcycle_motorcycle" depart="420.68" departLane="best" from="586413246#17" to="565255792#0"/>
    <trip id="motorcycle10" type="motorcycle_motorcycle" depart="467.42" departLane="best" from="-9142394#2" to="-9124791#0"/>
    <trip id="motorcycle11" type="motorcycle_motorcycle" depart="514.16" departLane="best" from="276157215#5" to="276157215#6"/>
    <trip id="motorcycle12" type="motorcycle_motorcycle" depart="560.90" departLane="best" from="586413259#1" to="343541421"/>
    <trip id="motorcycle13" type="motorcycle_motorcycle" depart="607.64" departLane="best" from="586413246#18" to="-568382083#1"/>
    <trip id="motorcycle14" type="motorcycle_motorcycle" depart="654.38" departLane="best" from="276157215#4" to="9151585#4"/>
    <trip id="motorcycle15" type="motorcycle_motorcycle" depart="701.13" departLane="best" from="-9151585#0" to="276157215#8"/>
    <trip id="motorcycle17" type="motorcycle_motorcycle" depart="794.61" departLane="best" from="586413266#2" to="283536956#1"/>
    <trip id="motorcycle18" type="motorcycle_motorcycle" depart="841.35" departLane="best" from="565255792#2" to="-180244636#6"/>
    <trip id="motorcycle19" type="motorcycle_motorcycle" depart="888.09" departLane="best" from="-586413246#11" to="631611869#0"/>
    <trip id="motorcycle20" type="motorcycle_motorcycle" depart="934.83" departLane="best" from="-276157215#1" to="-586413246#11"/>
    <trip id="motorcycle21" type="motorcycle_motorcycle" depart="981.58" departLane="best" from="-276157215#8" to="586413246#8"/>
    <trip id="motorcycle23" type="motorcycle_motorcycle" depart="1075.06" departLane="best" from="-9142394#4" to="-568382083#3"/>
    <trip id="motorcycle24" type="motorcycle_motorcycle" depart="1121.80" departLane="best" from="-586413246#7" to="9142394#0"/>
    <trip id="motorcycle26" type="motorcycle_motorcycle" depart="1215.29" departLane="best" from="-540665092#5" to="-568382083#1"/>
    <trip id="motorcycle27" type="motorcycle_motorcycle" depart="1262.03" departLane="best" from="-540665092#3" to="9142394#3"/>
    <trip id="motorcycle28" type="motorcycle_motorcycle" depart="1308.77" departLane="best" from="-9152018#0" to="540665092#0"/>
    <trip id="motorcycle29" type="motorcycle_motorcycle" depart="1355.51" departLane="best" from="-276157224#0" to="533664762"/>
    <trip id="motorcycle30" type="motorcycle_motorcycle" depart="1402.25" departLane="best" from="565255792#3" to="586413246#1"/>
    <trip id="motorcycle31" type="motorcycle_motorcycle" depart="1448.99" departLane="best" from="-586413246#12" to="-180244636#1"/>
    <trip id="motorcycle32" type="motorcycle_motorcycle" depart="1495.74" departLane="best" from="-656443274#5" to="586413246#5"/>
    <trip id="motorcycle33" type="motorcycle_motorcycle" depart="1542.48" departLane="best" from="586077896#3" to="9142394#2"/>
    <trip id="motorcycle34" type="motorcycle_motorcycle" depart="1589.22" departLane="best" from="656443273" to="656443274#5"/>
    <trip id="motorcycle35" type="motorcycle_motorcycle" depart="1635.96" departLane="best" from="-540665092#3" to="9151585#3"/>
    <trip id="motorcycle36" type="motorcycle_motorcycle" depart="1682.70" departLane="best" from="9122810#0" to="169152446#0"/>
    <trip id="motorcycle37" type="motorcycle_motorcycle" depart="1729.44" departLane="best" from="-586413246#6" to="-586413246#15"/>
    <trip id="motorcycle38" type="motorcycle_motorcycle" depart="1776.19" departLane="best" from="276157224#1" to="586413246#3"/>
    <trip id="motorcycle39" type="motorcycle_motorcycle" depart="1822.93" departLane="best" from="287145656#3" to="656443274#5"/>
    <trip id="motorcycle40" type="motorcycle_motorcycle" depart="1869.67" departLane="best" from="-9151585#6" to="586080833"/>
    <trip id="motorcycle41" type="motorcycle_motorcycle" depart="1916.41" departLane="best" from="9153734" to="180244645"/>
    <trip id="motorcycle42" type="motorcycle_motorcycle" depart="1963.15" departLane="best" from="-276157215#4" to="-180244636#6"/>
    <trip id="motorcycle43" type="motorcycle_motorcycle" depart="2009.89" departLane="best" from="276157224#0" to="531094133#1"/>
    <trip id="motorcycle44" type="motorcycle_motorcycle" depart="2056.64" departLane="best" from="586413246#13" to="129601761"/>
    <trip id="motorcycle45" type="motorcycle_motorcycle" depart="2103.38" departLane="best" from="-9152018#2" to="-276157215#0"/>
    <trip id="motorcycle46" type="motorcycle_motorcycle" depart="2150.12" departLane="best" from="-9151585#1" to="586413267#1"/>
    <trip id="motorcycle47" type="motorcycle_motorcycle" depart="2196.86" departLane="best" from="-1338769044#0" to="565255794"/>
    <trip id="motorcycle48" type="motorcycle_motorcycle" depart="2243.60" departLane="best" from="551574175#0" to="276157215#3"/>
    <trip id="motorcycle49" type="motorcycle_motorcycle" depart="2290.35" departLane="best" from="-586413246#7" to="540665092#0"/>
    <trip id="motorcycle50" type="motorcycle_motorcycle" depart="2337.09" departLane="best" from="-276157224#1" to="276157218"/>
    <trip id="motorcycle51" type="motorcycle_motorcycle" depart="2383.83" departLane="best" from="-1338769044#0" to="9142394#5"/>
    <trip id="motorcycle52" type="motorcycle_motorcycle" depart="2430.57" departLane="best" from="631653305#0" to="-586413246#3"/>
    <trip id="motorcycle53" type="motorcycle_motorcycle" depart="2477.31" departLane="best" from="180244637#1" to="540665092#8"/>
    <trip id="motorcycle54" type="motorcycle_motorcycle" depart="2524.05" departLane="best" departSpeed="max" from="828146451" to="631611869#1"/>
    <trip id="motorcycle55" type="motorcycle_motorcycle" depart="2570.80" departLane="best" from="656443274#0" to="540665092#0"/>
    <trip id="motorcycle56" type="motorcycle_motorcycle" depart="2617.54" departLane="best" departSpeed="max" from="423728990" to="540665092#10"/>
    <trip id="motorcycle57" type="motorcycle_motorcycle" depart="2664.28" departLane="best" from="586002131#2" to="276157215#3"/>
    <trip id="motorcycle58" type="motorcycle_motorcycle" depart="2711.02" departLane="best" from="-586413246#0" to="276157215#1"/>
    <trip id="motorcycle59" type="motorcycle_motorcycle" depart="2757.76" departLane="best" from="-1315084524" to="-828146450#0"/>
    <trip id="motorcycle61" type="motorcycle_motorcycle" depart="2851.25" departLane="best" from="-656443273" to="586413254#1"/>
    <trip id="motorcycle62" type="motorcycle_motorcycle" depart="2897.99" departLane="best" from="-656443274#2" to="180244637#1"/>
    <trip id="motorcycle63" type="motorcycle_motorcycle" depart="2944.73" departLane="best" from="656443273" to="9142394#3"/>
    <trip id="motorcycle64" type="motorcycle_motorcycle" depart="2991.47" departLane="best" from="-276157215#2" to="-180244636#8"/>
    <trip id="motorcycle65" type="motorcycle_motorcycle" depart="3038.21" departLane="best" from="180244652#0" to="-586077896#0"/>
    <trip id="motorcycle66" type="motorcycle_motorcycle" depart="3084.95" departLane="best" from="180244636#1" to="276157215#8"/>
    <trip id="motorcycle67" type="motorcycle_motorcycle" depart="3131.70" departLane="best" from="-586413246#6" to="631611869#1"/>
    <trip id="motorcycle68" type="motorcycle_motorcycle" depart="3178.44" departLane="best" departSpeed="max" from="1209313234" to="586077896#0"/>
    <trip id="motorcycle69" type="motorcycle_motorcycle" depart="3225.18" departLane="best" from="-276157215#5" to="-568382083#1"/>
    <trip id="motorcycle70" type="motorcycle_motorcycle" depart="3271.92" departLane="best" from="568382083#3" to="-656443274#4"/>
    <trip id="motorcycle71" type="motorcycle_motorcycle" depart="3318.66" departLane="best" from="-9152018#2" to="540665092#11"/>
    <trip id="motorcycle72" type="motorcycle_motorcycle" depart="3365.41" departLane="best" from="129601762#3" to="-180244652#3"/>
    <trip id="motorcycle73" type="motorcycle_motorcycle" depart="3412.15" departLane="best" from="-287145656#4" to="-586080837"/>
    <trip id="motorcycle74" type="motorcycle_motorcycle" depart="3458.89" departLane="best" from="-9129472" to="287145656#0"/>
    <trip id="motorcycle75" type="motorcycle_motorcycle" depart="3505.63" departLane="best" from="-586413246#12" to="586080833"/>
    <trip id="motorcycle76" type="motorcycle_motorcycle" depart="3552.37" departLane="best" from="180244652#2" to="551574176#0"/>
    <trip id="motorcycle77" type="motorcycle_motorcycle" depart="3599.11" departLane="best" from="-586413246#12" to="-828146450#0"/>
    <trip id="motorcycle78" type="motorcycle_motorcycle" depart="3645.86" departLane="best" from="586413266#1" to="180244652#2"/>
    <trip id="motorcycle79" type="motorcycle_motorcycle" depart="3692.60" departLane="best" from="586413246#14" to="540665092#7"/>
    <trip id="motorcycle80" type="motorcycle_motorcycle" depart="3739.34" departLane="best" from="9137054#1" to="277745444"/>
    <trip id="motorcycle81" type="motorcycle_motorcycle" depart="3786.08" departLane="best" from="180244636#0" to="586413246#13"/>
    <trip id="motorcycle82" type="motorcycle_motorcycle" depart="3832.82" departLane="best" from="586413246#18" to="565255794"/>
    <trip id="motorcycle83" type="motorcycle_motorcycle" depart="3879.56" departLane="best" from="-276157215#6" to="129601762#2"/>
    <trip id="motorcycle84" type="motorcycle_motorcycle" depart="3926.31" departLane="best" departSpeed="max" from="1209313234" to="-180244636#1"/>
    <trip id="motorcycle86" type="motorcycle_motorcycle" depart="4019.79" departLane="best" from="-9151585#6" to="276157215#8"/>
    <trip id="motorcycle87" type="motorcycle_motorcycle" depart="4066.53" departLane="best" from="-9152018#0" to="-9124791#0"/>
    <trip id="motorcycle88" type="motorcycle_motorcycle" depart="4113.27" departLane="best" from="586413266#2" to="-586413246#16"/>
    <trip id="motorcycle89" type="motorcycle_motorcycle" depart="4160.01" departLane="best" from="-565255794" to="1338769044#1"/>
    <trip id="motorcycle90" type="motorcycle_motorcycle" depart="4206.76" departLane="best" departSpeed="max" from="1209313234" to="586413246#8"/>
    <trip id="motorcycle91" type="motorcycle_motorcycle" depart="4253.50" departLane="best" from="-586413246#18" to="-9137054#1"/>
    <trip id="motorcycle92" type="motorcycle_motorcycle" depart="4300.24" departLane="best" from="-1315084524" to="586413267#1"/>
    <trip id="motorcycle93" type="motorcycle_motorcycle" depart="4346.98" departLane="best" from="276157217" to="-180244636#7"/>
    <trip id="motorcycle94" type="motorcycle_motorcycle" depart="4393.72" departLane="best" from="9153734" to="586413259#0"/>
    <trip id="motorcycle95" type="motorcycle_motorcycle" depart="4440.47" departLane="best" from="-9151585#1" to="-9137054#2"/>
    <trip id="motorcycle96" type="motorcycle_motorcycle" depart="4487.21" departLane="best" from="586413259#2" to="-540665092#4"/>
    <trip id="motorcycle97" type="motorcycle_motorcycle" depart="4533.95" departLane="best" from="180244636#5" to="-586077896#1"/>
    <trip id="motorcycle98" type="motorcycle_motorcycle" depart="4580.69" departLane="best" from="-9152018#0" to="180244637#1"/>
    <trip id="motorcycle99" type="motorcycle_motorcycle" depart="4627.43" departLane="best" from="-9151585#0" to="9152018#1"/>
    <trip id="motorcycle100" type="motorcycle_motorcycle" depart="4674.17" departLane="best" from="586413246#6" to="586413246#12"/>
    <trip id="motorcycle101" type="motorcycle_motorcycle" depart="4720.92" departLane="best" from="-1338769044#2" to="129601762#0"/>
    <trip id="motorcycle102" type="motorcycle_motorcycle" depart="4767.66" departLane="best" from="-9142394#2" to="9152018#3"/>
    <trip id="motorcycle103" type="motorcycle_motorcycle" depart="4814.40" departLane="best" from="-276157224#0" to="565255792#7"/>
    <trip id="motorcycle104" type="motorcycle_motorcycle" depart="4861.14" departLane="best" from="-540665092#10" to="-656443273"/>
    <trip id="motorcycle105" type="motorcycle_motorcycle" depart="4907.88" departLane="best" from="-9151585#1" to="283536956#2"/>
    <trip id="motorcycle106" type="motorcycle_motorcycle" depart="4954.62" departLane="best" from="-276157215#6" to="586002130#2"/>
    <trip id="motorcycle107" type="motorcycle_motorcycle" depart="5001.37" departLane="best" from="-180244639#1" to="283536957"/>
    <trip id="motorcycle108" type="motorcycle_motorcycle" depart="5048.11" departLane="best" from="-180244639#0" to="586413266#1"/>
    <trip id="motorcycle109" type="motorcycle_motorcycle" depart="5094.85" departLane="best" from="-276157215#1" to="551576182"/>
    <trip id="motorcycle110" type="motorcycle_motorcycle" depart="5141.59" departLane="best" from="-586413246#14" to="287145656#3"/>
    <trip id="motorcycle111" type="motorcycle_motorcycle" depart="5188.33" departLane="best" from="656443274#3" to="-586413246#15"/>
    <trip id="motorcycle112" type="motorcycle_motorcycle" depart="5235.07" departLane="best" departSpeed="max" from="1209313234" to="283536957"/>
    <trip id="motorcycle113" type="motorcycle_motorcycle" depart="5281.82" departLane="best" from="-276157215#0" to="-9142338"/>
    <trip id="motorcycle114" type="motorcycle_motorcycle" depart="5328.56" departLane="best" from="586077896#0" to="565255792#6"/>
    <trip id="motorcycle115" type="motorcycle_motorcycle" depart="5375.30" departLane="best" from="-586413246#15" to="9151585#3"/>
    <trip id="motorcycle116" type="motorcycle_motorcycle" depart="5422.04" departLane="best" from="-540665092#8" to="-656443274#0"/>
    <trip id="motorcycle117" type="motorcycle_motorcycle" depart="5468.78" departLane="best" from="-656443274#5" to="586002131#0"/>
    <trip id="motorcycle118" type="motorcycle_motorcycle" depart="5515.53" departLane="best" from="180244652#2" to="169152446#0"/>
    <trip id="motorcycle119" type="motorcycle_motorcycle" depart="5562.27" departLane="best" from="9153734" to="9152018#3"/>
    <trip id="motorcycle120" type="motorcycle_motorcycle" depart="5609.01" departLane="best" from="180244652#3" to="-586077896#1"/>
    <trip id="motorcycle122" type="motorcycle_motorcycle" depart="5702.49" departLane="best" from="-656443274#0" to="-656443273"/>
    <trip id="motorcycle123" type="motorcycle_motorcycle" depart="5749.23" departLane="best" from="-9142394#4" to="540665092#11"/>
    <trip id="motorcycle124" type="motorcycle_motorcycle" depart="5795.98" departLane="best" from="586413249#1" to="565255792#2"/>
    <trip id="motorcycle125" type="motorcycle_motorcycle" depart="5842.72" departLane="best" departSpeed="max" from="423728990" to="9152018#1"/>
    <trip id="motorcycle126" type="motorcycle_motorcycle" depart="5889.46" departLane="best" from="-540665092#3" to="1315084524"/>
    <trip id="motorcycle127" type="motorcycle_motorcycle" depart="5936.20" departLane="best" from="586413246#4" to="-656443274#0"/>
    <trip id="motorcycle128" type="motorcycle_motorcycle" depart="5982.94" departLane="best" from="-540665092#5" to="9142394#0"/>
    <trip id="motorcycle130" type="motorcycle_motorcycle" depart="6076.43" departLane="best" from="-276157217" to="276157215#9"/>
    <trip id="motorcycle131" type="motorcycle_motorcycle" depart="6123.17" departLane="best" from="586413246#8" to="343541421"/>
    <trip id="motorcycle132" type="motorcycle_motorcycle" depart="6169.91" departLane="best" from="586413267#1" to="-568382083#2"/>
    <trip id="motorcycle133" type="motorcycle_motorcycle" depart="6216.65" departLane="best" from="533665191" to="586413246#4"/>
    <trip id="motorcycle134" type="motorcycle_motorcycle" depart="6263.39" departLane="best" from="180244636#6" to="-828146450#0"/>
    <trip id="motorcycle135" type="motorcycle_motorcycle" depart="6310.13" departLane="best" from="586413259#1" to="276157215#5"/>
    <trip id="motorcycle136" type="motorcycle_motorcycle" depart="6356.88" departLane="best" departSpeed="max" from="1209313234" to="586413246#8"/>
    <trip id="motorcycle137" type="motorcycle_motorcycle" depart="6403.62" departLane="best" from="1315094301" to="586080833"/>
    <trip id="motorcycle138" type="motorcycle_motorcycle" depart="6450.36" departLane="best" from="533665196#1" to="586413246#3"/>
    <trip id="motorcycle139" type="motorcycle_motorcycle" depart="6497.10" departLane="best" from="129601761" to="1315094301"/>
    <trip id="motorcycle140" type="motorcycle_motorcycle" depart="6543.84" departLane="best" from="180244652#3" to="-656443274#1"/>
    <trip id="motorcycle141" type="motorcycle_motorcycle" depart="6590.58" departLane="best" from="-656443275" to="276157215#5"/>
    <trip id="motorcycle142" type="motorcycle_motorcycle" depart="6637.33" departLane="best" from="586413249#1" to="283536957"/>
    <trip id="motorcycle143" type="motorcycle_motorcycle" depart="6684.07" departLane="best" from="656443274#3" to="656443274#6"/>
    <trip id="motorcycle144" type="motorcycle_motorcycle" depart="6730.81" departLane="best" from="586413246#14" to="565255792#7"/>
    <trip id="motorcycle145" type="motorcycle_motorcycle" depart="6777.55" departLane="best" from="656443274#6" to="586077896#0"/>
    <trip id="motorcycle146" type="motorcycle_motorcycle" depart="6824.29" departLane="best" from="-586413246#18" to="276157215#9"/>
    <trip id="motorcycle147" type="motorcycle_motorcycle" depart="6871.04" departLane="best" from="-586413246#0" to="656443274#1"/>
    <trip id="motorcycle149" type="motorcycle_motorcycle" depart="6964.52" departLane="best" from="586413266#3" to="9151585#5"/>
    <trip id="motorcycle150" type="motorcycle_motorcycle" depart="7011.26" departLane="best" from="-586413246#2" to="656443274#0"/>
    <trip id="motorcycle151" type="motorcycle_motorcycle" depart="7058.00" departLane="best" from="180244636#0" to="586002129"/>
    <trip id="motorcycle153" type="motorcycle_motorcycle" depart="7151.49" departLane="best" from="586413246#16" to="631611869#0"/>
    <trip id="motorcycle154" type="motorcycle_motorcycle" depart="7198.23" departLane="best" from="586413246#2" to="586413246#5"/>
    <trip id="motorcycle155" type="motorcycle_motorcycle" depart="7244.97" departLane="best" from="586413246#12" to="276157224#0"/>
    <trip id="motorcycle156" type="motorcycle_motorcycle" depart="7291.71" departLane="best" from="-631611869#0" to="586413266#3"/>
    <trip id="motorcycle157" type="motorcycle_motorcycle" depart="7338.45" departLane="best" from="586413246#1" to="586413246#6"/>
    <trip id="motorcycle158" type="motorcycle_motorcycle" depart="7385.19" departLane="best" from="-1339425865#0" to="-656443274#2"/>
    <trip id="motorcycle159" type="motorcycle_motorcycle" depart="7431.94" departLane="best" from="-586413246#14" to="-586413246#0"/>
    <trip id="motorcycle161" type="motorcycle_motorcycle" depart="7525.42" departLane="best" from="9122810#0" to="631611869#0"/>
    <trip id="motorcycle162" type="motorcycle_motorcycle" depart="7572.16" departLane="best" from="-9151585#0" to="586413246#8"/>
    <trip id="motorcycle163" type="motorcycle_motorcycle" depart="7618.90" departLane="best" from="-540665092#1" to="9151585#4"/>
    <trip id="motorcycle164" type="motorcycle_motorcycle" depart="7665.64" departLane="best" from="-9151585#5" to="-276157215#2"/>
    <trip id="motorcycle165" type="motorcycle_motorcycle" depart="7712.39" departLane="best" from="9137054#2" to="287145656#0"/>
    <trip id="motorcycle166" type="motorcycle_motorcycle" depart="7759.13" departLane="best" from="-9142394#4" to="-586413246#4"/>
    <trip id="motorcycle167" type="motorcycle_motorcycle" depart="7805.87" departLane="best" from="-276157224#0" to="276157218"/>
    <trip id="motorcycle169" type="motorcycle_motorcycle" depart="7899.35" departLane="best" from="423728988" to="-180244652#0"/>
    <trip id="motorcycle170" type="motorcycle_motorcycle" depart="7946.10" departLane="best" from="-9151585#2" to="283536956#1"/>
    <trip id="motorcycle171" type="motorcycle_motorcycle" depart="7992.84" departLane="best" from="-586413246#3" to="586413266#3"/>
    <trip id="motorcycle172" type="motorcycle_motorcycle" depart="8039.58" departLane="best" from="1315084524" to="-9137054#2"/>
    <trip id="motorcycle173" type="motorcycle_motorcycle" depart="8086.32" departLane="best" from="-276157215#5" to="565255792#7"/>
    <trip id="motorcycle174" type="motorcycle_motorcycle" depart="8133.06" departLane="best" from="568382083#3" to="540665092#8"/>
    <trip id="motorcycle175" type="motorcycle_motorcycle" depart="8179.80" departLane="best" from="-9142394#2" to="-180244652#2"/>
    <trip id="motorcycle176" type="motorcycle_motorcycle" depart="8226.55" departLane="best" from="-540665092#6" to="-828146451"/>
    <trip id="motorcycle177" type="motorcycle_motorcycle" depart="8273.29" departLane="best" from="656443274#4" to="586413263#1"/>
    <trip id="motorcycle178" type="motorcycle_motorcycle" depart="8320.03" departLane="best" from="565255792#7" to="656443274#0"/>
    <trip id="motorcycle179" type="motorcycle_motorcycle" depart="8366.77" departLane="best" from="-656443274#3" to="9152018#0"/>
    <trip id="motorcycle180" type="motorcycle_motorcycle" depart="8413.51" departLane="best" from="-9152018#0" to="656443273"/>
    <trip id="motorcycle181" type="motorcycle_motorcycle" depart="8460.25" departLane="best" departSpeed="max" from="-343541421" to="129601761"/>
    <trip id="motorcycle184" type="motorcycle_motorcycle" depart="8600.48" departLane="best" from="-656443274#0" to="276157215#6"/>
    <trip id="motorcycle185" type="motorcycle_motorcycle" depart="8647.22" departLane="best" from="-1315084524" to="-586413254#0"/>
    <trip id="motorcycle186" type="motorcycle_motorcycle" depart="8693.96" departLane="best" from="129601762#0" to="283536956#2"/>
    <trip id="motorcycle187" type="motorcycle_motorcycle" depart="8740.70" departLane="best" from="-1315084524" to="586077896#1"/>
    <trip id="motorcycle188" type="motorcycle_motorcycle" depart="8787.45" departLane="best" from="586413246#14" to="540665092#5"/>
    <trip id="motorcycle189" type="motorcycle_motorcycle" depart="8834.19" departLane="best" from="-276157215#2" to="-180244652#2"/>
    <trip id="motorcycle190" type="motorcycle_motorcycle" depart="8880.93" departLane="best" from="533665191" to="-9122810#0"/>
    <trip id="motorcycle191" type="motorcycle_motorcycle" depart="8927.67" departLane="best" from="-586413246#4" to="586002131#0"/>
    <trip id="motorcycle192" type="motorcycle_motorcycle" depart="8974.41" departLane="best" from="-540665092#8" to="-586080837"/>
    <trip id="motorcycle193" type="motorcycle_motorcycle" depart="9021.16" departLane="best" from="568382083#2" to="-1339425865#0"/>
    <trip id="motorcycle194" type="motorcycle_motorcycle" depart="9067.90" departLane="best" from="-586413246#17" to="-180244636#4"/>
    <trip id="motorcycle195" type="motorcycle_motorcycle" depart="9114.64" departLane="best" from="586413259#2" to="180244652#2"/>
    <trip id="motorcycle196" type="motorcycle_motorcycle" depart="9161.38" departLane="best" departSpeed="max" from="-9152018#3" to="533664762"/>
    <trip id="motorcycle197" type="motorcycle_motorcycle" depart="9208.12" departLane="best" from="568382083#1" to="565255792#0"/>
    <trip id="motorcycle198" type="motorcycle_motorcycle" depart="9254.86" departLane="best" from="180244636#8" to="586413246#14"/>
    <trip id="motorcycle199" type="motorcycle_motorcycle" depart="9301.61" departLane="best" from="-540665092#3" to="-1209313234"/>
    <trip id="motorcycle200" type="motorcycle_motorcycle" depart="9348.35" departLane="best" from="586002130#1" to="586080833"/>
    <trip id="motorcycle201" type="motorcycle_motorcycle" depart="9395.09" departLane="best" from="276157217" to="129601762#0"/>
    <trip id="motorcycle202" type="motorcycle_motorcycle" depart="9441.83" departLane="best" from="-540665092#7" to="9142394#5"/>
    <trip id="motorcycle203" type="motorcycle_motorcycle" depart="9488.57" departLane="best" from="-180244652#3" to="-180244636#7"/>
    <trip id="motorcycle204" type="motorcycle_motorcycle" depart="9535.31" departLane="best" from="586413246#18" to="586413263#1"/>
    <trip id="motorcycle205" type="motorcycle_motorcycle" depart="9582.06" departLane="best" from="-1338769044#2" to="-586413246#18"/>
    <trip id="motorcycle206" type="motorcycle_motorcycle" depart="9628.80" departLane="best" from="-540665092#7" to="9152018#2"/>
    <trip id="motorcycle208" type="motorcycle_motorcycle" depart="9722.28" departLane="best" from="565255792#7" to="180244639#2"/>
    <trip id="motorcycle209" type="motorcycle_motorcycle" depart="9769.02" departLane="best" from="-586413246#8" to="276157215#6"/>
    <trip id="motorcycle210" type="motorcycle_motorcycle" depart="9815.76" departLane="best" from="-656443274#5" to="586002130#1"/>
    <trip id="motorcycle211" type="motorcycle_motorcycle" depart="9862.51" departLane="best" from="180244636#1" to="-586413246#2"/>
    <trip id="motorcycle212" type="motorcycle_motorcycle" depart="9909.25" departLane="best" from="-586413246#17" to="533665196#1"/>
    <trip id="motorcycle213" type="motorcycle_motorcycle" depart="9955.99" departLane="best" from="-586077896#0" to="273902603"/>
    <trip id="motorcycle214" type="motorcycle_motorcycle" depart="10002.73" departLane="best" from="-586413254#0" to="586413246#7"/>
    <trip id="motorcycle215" type="motorcycle_motorcycle" depart="10049.47" departLane="best" from="-276157215#0" to="-586413254#0"/>
    <trip id="motorcycle216" type="motorcycle_motorcycle" depart="10096.22" departLane="best" from="-586413246#8" to="656443274#6"/>
    <trip id="motorcycle217" type="motorcycle_motorcycle" depart="10142.96" departLane="best" from="-586413246#12" to="565245613"/>
    <trip id="motorcycle218" type="motorcycle_motorcycle" depart="10189.70" departLane="best" from="565255792#3" to="180244639#1"/>
    <trip id="motorcycle219" type="motorcycle_motorcycle" depart="10236.44" departLane="best" from="-9152018#2" to="276157215#4"/>
    <trip id="motorcycle220" type="motorcycle_motorcycle" depart="10283.18" departLane="best" departSpeed="max" from="-9152018#3" to="-568382083#3"/>
    <trip id="motorcycle221" type="motorcycle_motorcycle" depart="10329.92" departLane="best" departSpeed="max" from="1209313234" to="-828146450#0"/>
    <trip id="motorcycle222" type="motorcycle_motorcycle" depart="10376.67" departLane="best" from="287145656#0" to="565255792#0"/>
    <trip id="motorcycle223" type="motorcycle_motorcycle" depart="10423.41" departLane="best" from="586413263#1" to="586077896#3"/>
    <trip id="motorcycle224" type="motorcycle_motorcycle" depart="10470.15" departLane="best" from="-9151585#0" to="-1209313234"/>