<?xml version="1.0" encoding="UTF-8"?>

<!-- generated on 2025-02-25 19:04:10.017812 by osmWebWizard.py v1_21_0+0000-d7b3b481c43
<configuration>
    <net-file value="C:\Users\evans\Sumo\2025-02-25-19-04-05\osm.net.xml.gz"/>
    <output-trip-file value="C:\Users\evans\Sumo\2025-02-25-19-04-05\osm.bus.trips.xml"/>
    <route-file value="C:\Users\evans\Sumo\2025-02-25-19-04-05\osm.bus.rou.xml"/>
    <prefix value="bus"/>
    <trip-attributes value="departLane=&quot;best&quot;"/>
    <fringe-start-attributes value="departSpeed=&quot;max&quot;"/>
    <vehicle-class value="bus"/>
    <fringe-factor value="5"/>
    <vclass value="bus"/>
    <via-edge-types value="highway.motorway,highway.motorway_link,highway.trunk_link,highway.primary_link,highway.secondary_link,highway.tertiary_link"/>
    <min-distance value="600.0"/>
    <min-distance.fringe value="10.0"/>
    <remove-loops value="True"/>
    <validate value="True"/>
    <insertion-density value="4.0"/>
</configuration>
-->

<!-- generated on 2025-02-25 19:04:09 by Eclipse SUMO duarouter Version 1.21.0
<duarouterConfiguration xmlns:xsi="http://www.w3.org/2001/XMLSchema-instance" xsi:noNamespaceSchemaLocation="http://sumo.dlr.de/xsd/duarouterConfiguration.xsd">

    <input>
        <net-file value="C:\Users\evans\Sumo\2025-02-25-19-04-05\osm.net.xml.gz"/>
        <route-files value="C:\Users\evans\Sumo\2025-02-25-19-04-05\osm.bus.trips.xml"/>
    </input>

    <output>
        <output-file value="C:\Users\evans\Sumo\2025-02-25-19-04-05\osm.bus.trips.xml.tmp"/>
        <alternatives-output value="NUL"/>
        <write-trips value="true"/>
    </output>

    <processing>
        <remove-loops value="true"/>
    </processing>

    <time>
        <begin value="0.0"/>
        <end value="3600.0"/>
    </time>

    <report>
        <no-warnings value="true"/>
        <ignore-errors value="true"/>
        <no-step-log value="true"/>
    </report>

</duarouterConfiguration>
-->

<routes xmlns:xsi="http://www.w3.org/2001/XMLSchema-instance" xsi:noNamespaceSchemaLocation="http://sumo.dlr.de/xsd/routes_file.xsd">
    <vType id="bus_bus" vClass="bus"/>
    <trip id="bus0" type="bus_bus" depart="0.00" departLane="best" departSpeed="max" from="-656443274#3" to="586413246#3"/>
    <trip id="bus1" type="bus_bus" depart="72.11" departLane="best" from="180244637#1" to="180244652#1"/>
    <trip id="bus2" type="bus_bus" depart="144.22" departLane="best" from="586413246#14" to="-1315094301"/>
    <trip id="bus3" type="bus_bus" depart="216.33" departLane="best" from="129601762#0" to="-586080837"/>
    <trip id="bus4" type="bus_bus" depart="288.44" departLane="best" from="-586413246#5" to="551574174"/>
    <trip id="bus5" type="bus_bus" depart="360.56" departLane="best" from="586413246#14" to="586002130#0"/>
    <trip id="bus6" type="bus_bus" depart="432.67" departLane="best" from="-287145656#2" to="9152018#1"/>
    <trip id="bus7" type="bus_bus" depart="504.78" departLane="best" from="586413246#18" to="551574176#0"/>
    <trip id="bus8" type="bus_bus" depart="576.89" departLane="best" departSpeed="max" from="568382083#0" to="276157215#2"/>
    <trip id="bus9" type="bus_bus" depart="649.00" departLane="best" from="565255792#1" to="1315094301"/>
    <trip id="bus10" type="bus_bus" depart="721.11" departLane="best" departSpeed="max" from="169152467#0" to="-586413246#18"/>
    <trip id="bus11" type="bus_bus" depart="793.22" departLane="best" from="-586413246#16" to="586002129"/>
    <trip id="bus12" type="bus_bus" depart="865.33" departLane="best" from="-586413246#14" to="169152446#0"/>
    <trip id="bus13" type="bus_bus" depart="937.44" departLane="best" from="31031717#1" to="-565255794"/>
    <trip id="bus14" type="bus_bus" depart="1009.55" departLane="best" departSpeed="max" from="1209313234" to="-631653305#2"/>
    <trip id="bus15" type="bus_bus" depart="1081.67" departLane="best" from="-586413246#7" to="656443274#2"/>
    <trip id="bus16" type="bus_bus" depart="1153.78" departLane="best" departSpeed="max" from="-656443274#3" to="586413246#8"/>
    <trip id="bus17" type="bus_bus" depart="1225.89" departLane="best" departSpeed="max" from="169152469#0" to="586413246#2"/>
    <trip id="bus18" type="bus_bus" depart="1298.00" departLane="best" from="-287145656#3" to="-276157217"/>
    <trip id="bus19" type="bus_bus" depart="1370.11" departLane="best" from="586413246#11" to="169152472#0"/>
    <trip id="bus20" type="bus_bus" depart="1442.22" departLane="best" departSpeed="max" from="-276157215#3" to="169152446#0"/>
    <trip id="bus21" type="bus_bus" depart="1514.33" departLane="best" from="-9152018#1" to="283536957"/>
    <trip id="bus22" type="bus_bus" depart="1586.44" departLane="best" from="-180244637#0" to="-568382083#2"/>
    <trip id="bus24" type="bus_bus" depart="1730.67" departLane="best" from="277745444" to="-586413246#12"/>
    <trip id="bus25" type="bus_bus" depart="1802.78" departLane="best" from="-551576182" to="-586080837"/>
    <trip id="bus26" type="bus_bus" depart="1874.89" departLane="best" departSpeed="max" from="586080837" to="283536957"/>
    <trip id="bus27" type="bus_bus" depart="1947.00" departLane="best" departSpeed="max" from="586080837" to="283536957"/>
    <trip id="bus28" type="bus_bus" depart="2019.11" departLane="best" from="-180244637#1" to="656443274#2"/>
    <trip id="bus29" type="bus_bus" depart="2091.22" departLane="best" from="586413256" to="586413246#8"/>
    <trip id="bus30" type="bus_bus" depart="2163.33" departLane="best" from="-287145656#2" to="276157215#3"/>
    <trip id="bus31" type="bus_bus" depart="2235.44" departLane="best" departSpeed="max" from="586080837" to="-568382083#1"/>
    <trip id="bus32" type="bus_bus" depart="2307.55" departLane="best" from="-276157215#2" to="287145656#0"/>
    <trip id="bus33" type="bus_bus" depart="2379.66" departLane="best" from="-9152018#1" to="565255792#1"/>
    <trip id="bus35" type="bus_bus" depart="2523.89" departLane="best" from="-586413246#7" to="287145656#3"/>
    <trip id="bus36" type="bus_bus" depart="2596.00" departLane="best" from="-586413246#8" to="-568382083#1"/>
    <trip id="bus37" type="bus_bus" depart="2668.11" departLane="best" from="-276157215#2" to="586413246#15"/>
    <trip id="bus39" type="bus_bus" depart="2812.33" departLane="best" departSpeed="max" from="169152469#0" to="9152018#1"/>
    <trip id="bus40" type="bus_bus" depart="2884.44" departLane="best" from="-586413246#3" to="180244652#1"/>
    <trip id="bus41" type="bus_bus" depart="2956.55" departLane="best" departSpeed="max" from="9122810#0" to="656443274#2"/>
    <trip id="bus42" type="bus_bus" depart="3028.66" departLane="best" from="276157218" to="-586413246#18"/>
    <trip id="bus43" type="bus_bus" depart="3100.78" departLane="best" departSpeed="max" from="169152467#0" to="9152018#2"/>
    <trip id="bus44" type="bus_bus" depart="3172.89" departLane="best" departSpeed="max" from="-656443274#3" to="586413246#15"/>
    <trip id="bus45" type="bus_bus" depart="3245.00" departLane="best" from="31031717#1" to="-568382083#1"/>
    <trip id="bus46" type="bus_bus" depart="3317.11" departLane="best" from="-586413246#13" to="-9122810#0"/>
    <trip id="bus47" type="bus_bus" depart="3389.22" departLane="best" departSpeed="max" from="-276157215#3" to="533664762"/>
    <trip id="bus48" type="bus_bus" depart="3461.33" departLane="best" from="-586413246#13" to="-9142338"/>
    <trip id="bus49" type="bus_bus" depart="3533.44" departLane="best" from="-276157224#1" to="-586413246#13"/>
</routes>
