<?xml version="1.0" encoding="UTF-8"?>

<!-- generated on 2025-02-26 16:49:01.103873 by osmWebWizard.py v1_21_0+0000-d7b3b481c43
<configuration>
    <net-file value="C:\Users\evans\Sumo\2025-02-26-16-48-44\osm.net.xml.gz"/>
    <output-trip-file value="C:\Users\evans\Sumo\2025-02-26-16-48-44\osm.motorcycle.trips.xml"/>
    <route-file value="C:\Users\evans\Sumo\2025-02-26-16-48-44\osm.motorcycle.rou.xml"/>
    <prefix value="motorcycle"/>
    <trip-attributes value="departLane=&quot;best&quot;"/>
    <fringe-start-attributes value="departSpeed=&quot;max&quot;"/>
    <vehicle-class value="motorcycle"/>
    <fringe-factor value="2"/>
    <vclass value="motorcycle"/>
    <via-edge-types value="highway.motorway,highway.motorway_link,highway.trunk_link,highway.primary_link,highway.secondary_link,highway.tertiary_link"/>
    <max-distance value="1200.0"/>
    <remove-loops value="True"/>
    <validate value="True"/>
    <end value="86400.0"/>
    <insertion-density value="4.0"/>
</configuration>
-->

<!-- generated on 2025-02-26 16:49:00 by Eclipse SUMO duarouter Version 1.21.0
<duarouterConfiguration xmlns:xsi="http://www.w3.org/2001/XMLSchema-instance" xsi:noNamespaceSchemaLocation="http://sumo.dlr.de/xsd/duarouterConfiguration.xsd">

    <input>
        <net-file value="C:\Users\evans\Sumo\2025-02-26-16-48-44\osm.net.xml.gz"/>
        <route-files value="C:\Users\evans\Sumo\2025-02-26-16-48-44\osm.motorcycle.trips.xml"/>
    </input>

    <output>
        <output-file value="C:\Users\evans\Sumo\2025-02-26-16-48-44\osm.motorcycle.trips.xml.tmp"/>
        <alternatives-output value="NUL"/>
        <write-trips value="true"/>
    </output>

    <processing>
        <remove-loops value="true"/>
    </processing>

    <time>
        <begin value="0.0"/>
        <end value="86400.0"/>
    </time>

    <report>
        <no-warnings value="true"/>
        <ignore-errors value="true"/>
        <no-step-log value="true"/>
    </report>

</duarouterConfiguration>
-->

<routes xmlns:xsi="http://www.w3.org/2001/XMLSchema-instance" xsi:noNamespaceSchemaLocation="http://sumo.dlr.de/xsd/routes_file.xsd">
    <vType id="motorcycle_motorcycle" vClass="motorcycle"/>
    <trip id="motorcycle0" type="motorcycle_motorcycle" depart="0.00" departLane="best" from="343537871" to="1315066558"/>
    <trip id="motorcycle1" type="motorcycle_motorcycle" depart="18.44" departLane="best" from="568370164" to="423728986"/>
    <trip id="motorcycle3" type="motorcycle_motorcycle" depart="55.31" departLane="best" from="-9150977#2" to="1315066561"/>
    <trip id="motorcycle4" type="motorcycle_motorcycle" depart="73.75" departLane="best" departSpeed="max" from="-1209313235" to="540665092#8"/>
    <trip id="motorcycle5" type="motorcycle_motorcycle" depart="92.19" departLane="best" from="-371908694#1" to="180244639#1"/>
    <trip id="motorcycle6" type="motorcycle_motorcycle" depart="110.63" departLane="best" from="586413266#3" to="540665092#10"/>
    <trip id="motorcycle7" type="motorcycle_motorcycle" depart="129.07" departLane="best" from="-9148332#2" to="-9138488#11"/>
    <trip id="motorcycle8" type="motorcycle_motorcycle" depart="147.50" departLane="best" from="9122370#4" to="283536956#2"/>
    <trip id="motorcycle9" type="motorcycle_motorcycle" depart="165.94" departLane="best" from="586413267#1" to="586413259#0"/>
    <trip id="motorcycle10" type="motorcycle_motorcycle" depart="184.38" departLane="best" from="-180244636#6" to="9150977#22"/>
    <trip id="motorcycle11" type="motorcycle_motorcycle" depart="202.82" departLane="best" from="9124791#1" to="273902603"/>
    <trip id="motorcycle12" type="motorcycle_motorcycle" depart="221.26" departLane="best" from="-540665092#8" to="-1333430095#2"/>
    <trip id="motorcycle13" type="motorcycle_motorcycle" depart="239.69" departLane="best" from="-586077896#1" to="-9119753#4"/>
    <trip id="motorcycle14" type="motorcycle_motorcycle" depart="258.13" departLane="best" from="-180244639#0" to="586413246#12"/>
    <trip id="motorcycle15" type="motorcycle_motorcycle" depart="276.57" departLane="best" from="267110730#1" to="-828146450#0"/>
    <trip id="motorcycle16" type="motorcycle_motorcycle" depart="295.01" departLane="best" from="-9142394#5" to="-568380593"/>
    <trip id="motorcycle18" type="motorcycle_motorcycle" depart="331.88" departLane="best" from="-9152018#1" to="341635867#1"/>
    <trip id="motorcycle20" type="motorcycle_motorcycle" depart="368.76" departLane="best" from="9122370#1" to="586413246#0"/>
    <trip id="motorcycle21" type="motorcycle_motorcycle" depart="387.20" departLane="best" from="9124791#1" to="656443274#2"/>
    <trip id="motorcycle22" type="motorcycle_motorcycle" depart="405.64" departLane="best" from="-568373941#0" to="9147358#1"/>
    <trip id="motorcycle23" type="motorcycle_motorcycle" depart="424.07" departLane="best" departSpeed="max" from="9137054#0" to="9129472"/>
    <trip id="motorcycle24" type="motorcycle_motorcycle" depart="442.51" departLane="best" from="372398472" to="9147358#0"/>
    <trip id="motorcycle25" type="motorcycle_motorcycle" depart="460.95" departLane="best" from="-9142394#0" to="-1044405760#5"/>
    <trip id="motorcycle26" type="motorcycle_motorcycle" depart="479.39" departLane="best" from="-586413249#0" to="586413246#5"/>
    <trip id="motorcycle27" type="motorcycle_motorcycle" depart="497.83" departLane="best" from="267110730#2" to="-656443273"/>
    <trip id="motorcycle28" type="motorcycle_motorcycle" depart="516.26" departLane="best" from="276157217" to="9138488#3"/>
    <trip id="motorcycle29" type="motorcycle_motorcycle" depart="534.70" departLane="best" from="9148332#0" to="-586077896#1"/>
    <trip id="motorcycle30" type="motorcycle_motorcycle" depart="553.14" departLane="best" from="9153734#3" to="1338769043#1"/>
    <trip id="motorcycle31" type="motorcycle_motorcycle" depart="571.58" departLane="best" departSpeed="max" from="-210830412" to="1338769043#1"/>
    <trip id="motorcycle32" type="motorcycle_motorcycle" depart="590.02" departLane="best" from="276157215#0" to="-341623766#1"/>
    <trip id="motorcycle33" type="motorcycle_motorcycle" depart="608.45" departLane="best" from="1044405760#6" to="565245611#1"/>
    <trip id="motorcycle34" type="motorcycle_motorcycle" depart="626.89" departLane="best" from="505368797#4" to="-180244636#6"/>
    <trip id="motorcycle35" type="motorcycle_motorcycle" depart="645.33" departLane="best" from="-586413254#0" to="-343535439"/>
    <trip id="motorcycle36" type="motorcycle_motorcycle" depart="663.77" departLane="best" from="276157215#1" to="9151585#6"/>
    <trip id="motorcycle37" type="motorcycle_motorcycle" depart="682.21" departLane="best" from="1044405760#1" to="9148332#11"/>
    <trip id="motorcycle38" type="motorcycle_motorcycle" depart="700.64" departLane="best" departSpeed="max" from="9137054#0" to="656443273"/>
    <trip id="motorcycle39" type="motorcycle_motorcycle" depart="719.08" departLane="best" from="-1315094301" to="-505368797#3"/>
    <trip id="motorcycle40" type="motorcycle_motorcycle" depart="737.52" departLane="best" from="9142338#3" to="-9130541#1"/>
    <trip id="motorcycle41" type="motorcycle_motorcycle" depart="755.96" departLane="best" from="586080832" to="180244636#8"/>
    <trip id="motorcycle42" type="motorcycle_motorcycle" depart="774.40" departLane="best" from="-586413246#17" to="-180244636#1"/>
    <trip id="motorcycle43" type="motorcycle_motorcycle" depart="792.83" departLane="best" from="9137054#2" to="656443274#5"/>
    <trip id="motorcycle44" type="motorcycle_motorcycle" depart="811.27" departLane="best" from="9122370#4" to="-1338769044#2"/>
    <trip id="motorcycle45" type="motorcycle_motorcycle" depart="829.71" departLane="best" from="180244652#0" to="129601762#3"/>
    <trip id="motorcycle46" type="motorcycle_motorcycle" depart="848.15" departLane="best" from="180244636#4" to="586002130#1"/>
    <trip id="motorcycle47" type="motorcycle_motorcycle" depart="866.59" departLane="best" departSpeed="max" from="1090698273#0" to="180244645"/>
    <trip id="motorcycle48" type="motorcycle_motorcycle" depart="885.02" departLane="best" from="-586413249#1" to="-9130541#2"/>
    <trip id="motorcycle49" type="motorcycle_motorcycle" depart="903.46" departLane="best" from="180244636#8" to="565255792#3"/>
    <trip id="motorcycle50" type="motorcycle_motorcycle" depart="921.90" departLane="best" from="-540665092#6" to="-9124791#3"/>
    <trip id="motorcycle51" type="motorcycle_motorcycle" depart="940.34" departLane="best" from="-9151585#6" to="1338769044#0"/>
    <trip id="motorcycle52" type="motorcycle_motorcycle" depart="958.78" departLane="best" from="-276157215#9" to="586080833"/>
    <trip id="motorcycle53" type="motorcycle_motorcycle" depart="977.21" departLane="best" from="-586077896#3" to="-586077896#1"/>
    <trip id="motorcycle54" type="motorcycle_motorcycle" depart="995.65" departLane="best" from="180244636#5" to="-341623766#4"/>
    <trip id="motorcycle55" type="motorcycle_motorcycle" depart="1014.09" departLane="best" from="-586077896#1" to="9138488#8"/>
    <trip id="motorcycle56" type="motorcycle_motorcycle" depart="1032.53" departLane="best" departSpeed="max" from="9124791#0" to="-180244636#7"/>
    <trip id="motorcycle57" type="motorcycle_motorcycle" depart="1050.97" departLane="best" departSpeed="max" from="-586147124" to="415362031#4"/>
    <trip id="motorcycle58" type="motorcycle_motorcycle" depart="1069.40" departLane="best" from="586413267#1" to="-540665092#2"/>
    <trip id="motorcycle59" type="motorcycle_motorcycle" depart="1087.84" departLane="best" from="-9150977#21" to="1088638458"/>
    <trip id="motorcycle60" type="motorcycle_motorcycle" depart="1106.28" departLane="best" from="565255792#4" to="423655377#0"/>
    <trip id="motorcycle61" type="motorcycle_motorcycle" depart="1124.72" departLane="best" from="-9151585#4" to="-276157215#0"/>
    <trip id="motorcycle62" type="motorcycle_motorcycle" depart="1143.16" departLane="best" departSpeed="max" from="-9148332#11" to="-9138488#13"/>
    <trip id="motorcycle63" type="motorcycle_motorcycle" depart="1161.60" departLane="best" from="9124791#1" to="586413246#6"/>
    <trip id="motorcycle64" type="motorcycle_motorcycle" depart="1180.03" departLane="best" from="540665092#0" to="-1044405760#0"/>
    <trip id="motorcycle65" type="motorcycle_motorcycle" depart="1198.47" departLane="best" from="-586413246#16" to="9142445#1"/>
    <trip id="motorcycle66" type="motorcycle_motorcycle" depart="1216.91" departLane="best" from="-9152018#3" to="-9122810#2"/>
    <trip id="motorcycle67" type="motorcycle_motorcycle" depart="1235.35" departLane="best" from="180244652#3" to="1338769043#4"/>
    <trip id="motorcycle69" type="motorcycle_motorcycle" depart="1272.22" departLane="best" from="129601762#2" to="-568382083#1"/>
    <trip id="motorcycle70" type="motorcycle_motorcycle" depart="1290.66" departLane="best" from="9148332#1" to="-1338769044#2"/>
    <trip id="motorcycle72" type="motorcycle_motorcycle" depart="1327.54" departLane="best" from="-586413249#1" to="586413246#15"/>
    <trip id="motorcycle73" type="motorcycle_motorcycle" depart="1345.98" departLane="best" from="9148332#2" to="9153734#1"/>
    <trip id="motorcycle75" type="motorcycle_motorcycle" depart="1382.85" departLane="best" from="-9150977#1" to="276157215#1"/>
    <trip id="motorcycle76" type="motorcycle_motorcycle" depart="1401.29" departLane="best" from="180244637#1" to="-568380593"/>
    <trip id="motorcycle77" type="motorcycle_motorcycle" depart="1419.73" departLane="best" from="1333430094#1" to="9122370#2"/>
    <trip id="motorcycle78" type="motorcycle_motorcycle" depart="1438.17" departLane="best" from="-180244639#0" to="-540665092#1"/>
    <trip id="motorcycle79" type="motorcycle_motorcycle" depart="1456.60" departLane="best" from="283536956#2" to="423655377#1"/>
    <trip id="motorcycle80" type="motorcycle_motorcycle" depart="1475.04" departLane="best" from="180244628" to="-287145664#0"/>
    <trip id="motorcycle81" type="motorcycle_motorcycle" depart="1493.48" departLane="best" from="9138488#13" to="586413246#4"/>
    <trip id="motorcycle82" type="motorcycle_motorcycle" depart="1511.92" departLane="best" from="283536956#1" to="290619644#3"/>
    <trip id="motorcycle83" type="motorcycle_motorcycle" depart="1530.36" departLane="best" from="-9150977#10" to="276157215#4"/>
    <trip id="motorcycle84" type="motorcycle_motorcycle" depart="1548.79" departLane="best" from="-540665092#8" to="551574175#0"/>
    <trip id="motorcycle85" type="motorcycle_motorcycle" depart="1567.23" departLane="best" from="423728986" to="-9122810#0"/>
    <trip id="motorcycle86" type="motorcycle_motorcycle" depart="1585.67" departLane="best" from="9124791#1" to="-568382083#0"/>
    <trip id="motorcycle87" type="motorcycle_motorcycle" depart="1604.11" departLane="best" from="-9153734#3" to="-9153734#2"/>
    <trip id="motorcycle88" type="motorcycle_motorcycle" depart="1622.55" departLane="best" from="180244636#7" to="-568382083#0"/>
    <trip id="motorcycle90" type="motorcycle_motorcycle" depart="1659.42" departLane="best" from="-9137054#3" to="-9137054#2"/>
    <trip id="motorcycle91" type="motorcycle_motorcycle" depart="1677.86" departLane="best" from="9130541#5" to="-1044405760#3"/>
    <trip id="motorcycle92" type="motorcycle_motorcycle" depart="1696.30" departLane="best" from="656443274#1" to="-9122370#6"/>
    <trip id="motorcycle93" type="motorcycle_motorcycle" depart="1714.74" departLane="best" from="287145664#3" to="287145656#0"/>
    <trip id="motorcycle94" type="motorcycle_motorcycle" depart="1733.17" departLane="best" from="-631653305#2" to="283536957"/>
    <trip id="motorcycle95" type="motorcycle_motorcycle" depart="1751.61" departLane="best" departSpeed="max" from="563606218" to="568370163"/>
    <trip id="motorcycle96" type="motorcycle_motorcycle" depart="1770.05" departLane="best" from="-9122370#3" to="-267110730#3"/>
    <trip id="motorcycle97" type="motorcycle_motorcycle" depart="1788.49" departLane="best" from="-9150977#21" to="691528616"/>
    <trip id="motorcycle98" type="motorcycle_motorcycle" depart="1806.93" departLane="best" from="-341635867#1" to="-631653305#2"/>
    <trip id="motorcycle99" type="motorcycle_motorcycle" depart="1825.36" departLane="best" from="568377839" to="180244652#2"/>
    <trip id="motorcycle100" type="motorcycle_motorcycle" depart="1843.80" departLane="best" from="180244636#8" to="9138488#0"/>
    <trip id="motorcycle101" type="motorcycle_motorcycle" depart="1862.24" departLane="best" from="-9122370#5" to="-9138488#4"/>
    <trip id="motorcycle102" type="motorcycle_motorcycle" depart="1880.68" departLane="best" from="586413259#0" to="-9122810#1"/>
    <trip id="motorcycle103" type="motorcycle_motorcycle" depart="1899.12" departLane="best" from="-586413246#16" to="276157215#3"/>
    <trip id="motorcycle104" type="motorcycle_motorcycle" depart="1917.55" departLane="best" from="586413246#18" to="9138488#1"/>
    <trip id="motorcycle105" type="motorcycle_motorcycle" depart="1935.99" departLane="best" from="-9148332#2" to="304892966#0"/>
    <trip id="motorcycle107" type="motorcycle_motorcycle" depart="1972.87" departLane="best" from="-631611869#0" to="-9137054#4"/>
    <trip id="motorcycle108" type="motorcycle_motorcycle" depart="1991.31" departLane="best" departSpeed="max" from="-1209313235" to="565255794"/>
    <trip id="motorcycle110" type="motorcycle_motorcycle" depart="2028.18" departLane="best" from="586413263#1" to="-9124791#1"/>
    <trip id="motorcycle111" type="motorcycle_motorcycle" depart="2046.62" departLane="best" from="-631611869#0" to="656443274#2"/>
    <trip id="motorcycle112" type="motorcycle_motorcycle" depart="2065.06" departLane="best" from="-586413246#6" to="276157215#8"/>
    <trip id="motorcycle113" type="motorcycle_motorcycle" depart="2083.50" departLane="best" from="568382083#1" to="565255792#7"/>
    <trip id="motorcycle114" type="motorcycle_motorcycle" depart="2101.93" departLane="best" from="586413259#0" to="-586080837"/>
    <trip id="motorcycle115" type="motorcycle_motorcycle" depart="2120.37" departLane="best" from="-9152018#3" to="540665092#4"/>
    <trip id="motorcycle116" type="motorcycle_motorcycle" depart="2138.81" departLane="best" from="9137054#1" to="-9124791#1"/>
    <trip id="motorcycle117" type="motorcycle_motorcycle" depart="2157.25" departLane="best" from="9148332#8" to="-828146450#0"/>
    <trip id="motorcycle118" type="motorcycle_motorcycle" depart="2175.69" departLane="best" from="-9151585#2" to="-180244636#6"/>
    <trip id="motorcycle119" type="motorcycle_motorcycle" depart="2194.12" departLane="best" from="9148332#5" to="-656443274#1"/>
    <trip id="motorcycle120" type="motorcycle_motorcycle" depart="2212.56" departLane="best" from="-273902602#1" to="9151585#6"/>
    <trip id="motorcycle121" type="motorcycle_motorcycle" depart="2231.00" departLane="best" from="565255792#4" to="-9127807"/>
    <trip id="motorcycle122" type="motorcycle_motorcycle" depart="2249.44" departLane="best" from="287145664#3" to="1338769043#2"/>
    <trip id="motorcycle123" type="motorcycle_motorcycle" depart="2267.88" departLane="best" from="-586413246#2" to="540665092#7"/>
    <trip id="motorcycle124" type="motorcycle_motorcycle" depart="2286.31" departLane="best" from="180244636#7" to="551576182"/>
    <trip id="motorcycle125" type="motorcycle_motorcycle" depart="2304.75" departLane="best" from="568377839" to="423654396"/>
    <trip id="motorcycle126" type="motorcycle_motorcycle" depart="2323.19" departLane="best" from="-9142394#1" to="-180244636#6"/>
    <trip id="motorcycle127" type="motorcycle_motorcycle" depart="2341.63" departLane="best" from="423654395" to="-9137054#4"/>
    <trip id="motorcycle128" type="motorcycle_motorcycle" depart="2360.07" departLane="best" from="9122810#3" to="9119753#3"/>
    <trip id="motorcycle129" type="motorcycle_motorcycle" depart="2378.50" departLane="best" from="565245609#0" to="-9122810#0"/>
    <trip id="motorcycle130" type="motorcycle_motorcycle" depart="2396.94" departLane="best" from="9122370#5" to="9148332#4"/>
    <trip id="motorcycle131" type="motorcycle_motorcycle" depart="2415.38" departLane="best" from="-9148332#10" to="-9122370#4"/>
    <trip id="motorcycle132" type="motorcycle_motorcycle" depart="2433.82" departLane="best" from="-9138488#7" to="-287145664#3"/>
    <trip id="motorcycle133" type="motorcycle_motorcycle" depart="2452.26" departLane="best" from="1044405760#0" to="9119753#3"/>
    <trip id="motorcycle134" type="motorcycle_motorcycle" depart="2470.69" departLane="best" from="-9151585#1" to="-276157215#1"/>
    <trip id="motorcycle135" type="motorcycle_motorcycle" depart="2489.13" departLane="best" from="9130541#5" to="-1044405760#9"/>
    <trip id="motorcycle136" type="motorcycle_motorcycle" depart="2507.57" departLane="best" from="-9152018#2" to="-568382083#1"/>
    <trip id="motorcycle137" type="motorcycle_motorcycle" depart="2526.01" departLane="best" from="180244652#0" to="1338769043#5"/>
    <trip id="motorcycle138" type="motorcycle_motorcycle" depart="2544.45" departLane="best" from="656443274#2" to="-568382083#0"/>
    <trip id="motorcycle139" type="motorcycle_motorcycle" depart="2562.88" departLane="best" from="-586413246#12" to="1118381045"/>
    <trip id="motorcycle140" type="motorcycle_motorcycle" depart="2581.32" departLane="best" from="-540665092#11" to="-540665092#1"/>
    <trip id="motorcycle141" type="motorcycle_motorcycle" depart="2599.76" departLane="best" from="-1315070421#0" to="586413246#3"/>
    <trip id="motorcycle142" type="motorcycle_motorcycle" depart="2618.20" departLane="best" from="372398472" to="-1044405760#11"/>
    <trip id="motorcycle143" type="motorcycle_motorcycle" depart="2636.64" departLane="best" from="586002129" to="586080833"/>
    <trip id="motorcycle144" type="motorcycle_motorcycle" depart="2655.07" departLane="best" from="-273902602#0" to="9150977#3"/>
    <trip id="motorcycle145" type="motorcycle_motorcycle" depart="2673.51" departLane="best" from="1338769044#0" to="1338769043#4"/>
    <trip id="motorcycle146" type="motorcycle_motorcycle" depart="2691.95" departLane="best" from="586413246#15" to="9119753#4"/>
    <trip id="motorcycle147" type="motorcycle_motorcycle" depart="2710.39" departLane="best" from="1044405760#11" to="586413254#1"/>
    <trip id="motorcycle149" type="motorcycle_motorcycle" depart="2747.26" departLane="best" from="283536956#2" to="9148332#10"/>
    <trip id="motorcycle150" type="motorcycle_motorcycle" depart="2765.70" departLane="best" from="-9138488#14" to="-287145664#0"/>
    <trip id="motorcycle151" type="motorcycle_motorcycle" depart="2784.14" departLane="best" from="565245609#0" to="1333430095#0"/>
    <trip id="motorcycle152" type="motorcycle_motorcycle" depart="2802.58" departLane="best" departSpeed="max" from="1090698273#0" to="631611869#0"/>
    <trip id="motorcycle153" type="motorcycle_motorcycle" depart="2821.02" departLane="best" from="-586413246#14" to="341635867#0"/>
    <trip id="motorcycle154" type="motorcycle_motorcycle" depart="2839.45" departLane="best" from="-180244637#1" to="-9119753#2"/>
    <trip id="motorcycle155" type="motorcycle_motorcycle" depart="2857.89" departLane="best" from="-180244637#0" to="-341623766#4"/>
    <trip id="motorcycle156" type="motorcycle_motorcycle" depart="2876.33" departLane="best" from="551574173" to="-180244636#1"/>
    <trip id="motorcycle157" type="motorcycle_motorcycle" depart="2894.77" departLane="best" from="-9148332#3" to="180244637#1"/>
    <trip id="motorcycle158" type="motorcycle_motorcycle" depart="2913.21" departLane="best" from="-9148332#9" to="568373941#1"/>
    <trip id="motorcycle159" type="motorcycle_motorcycle" depart="2931.64" departLane="best" from="-276157215#9" to="540665092#0"/>
    <trip id="motorcycle160" type="motorcycle_motorcycle" depart="2950.08" departLane="best" from="9122810#2" to="586077896#1"/>
    <trip id="motorcycle161" type="motorcycle_motorcycle" depart="2968.52" departLane="best" from="-9138488#5" to="-568382083#1"/>
    <trip id="motorcycle162" type="motorcycle_motorcycle" depart="2986.96" departLane="best" from="180244645" to="283536956#2"/>
    <trip id="motorcycle164" type="motorcycle_motorcycle" depart="3023.83" departLane="best" from="-9151585#5" to="1315066561"/>
    <trip id="motorcycle166" type="motorcycle_motorcycle" depart="3060.71" departLane="best" from="1044405760#9" to="290619644#2"/>
    <trip id="motorcycle167" type="motorcycle_motorcycle" depart="3079.15" departLane="best" departSpeed="max" from="341623766#0" to="1315066559"/>
    <trip id="motorcycle169" type="motorcycle_motorcycle" depart="3116.02" departLane="best" departSpeed="max" from="-1209313235" to="-343537871"/>
    <trip id="motorcycle170" type="motorcycle_motorcycle" depart="3134.46" departLane="best" from="290619644#1" to="-1044405760#7"/>
    <trip id="motorcycle171" type="motorcycle_motorcycle" depart="3152.90" departLane="best" from="586002129" to="656443274#5"/>
    <trip id="motorcycle172" type="motorcycle_motorcycle" depart="3171.34" departLane="best" from="586413246#18" to="180244652#3"/>
    <trip id="motorcycle173" type="motorcycle_motorcycle" depart="3189.78" departLane="best" from="988304974" to="9138488#6"/>
    <trip id="motorcycle174" type="motorcycle_motorcycle" depart="3208.21" departLane="best" from="-371908694#1" to="586413246#13"/>
    <trip id="motorcycle175" type="motorcycle_motorcycle" depart="3226.65" departLane="best" from="-371908694#3" to="-568382083#2"/>
    <trip id="motorcycle176" type="motorcycle_motorcycle" depart="3245.09" departLane="best" from="-9147358#1" to="-540665092#9"/>
    <trip id="motorcycle177" type="motorcycle_motorcycle" depart="3263.53" departLane="best" from="-287145656#2" to="169152446#0"/>
    <trip id="motorcycle178" type="motorcycle_motorcycle" depart="3281.97" departLane="best" from="267116467" to="586077896#0"/>
    <trip id="motorcycle179" type="motorcycle_motorcycle" depart="3300.41" departLane="best" from="-540665092#5" to="-586077896#3"/>
    <trip id="motorcycle180" type="motorcycle_motorcycle" depart="3318.84" departLane="best" from="568382083#2" to="276157224#1"/>
    <trip id="motorcycle181" type="motorcycle_motorcycle" depart="3337.28" departLane="best" from="656443274#2" to="9148332#9"/>
    <trip id="motorcycle182" type="motorcycle_motorcycle" depart="3355.72" departLane="best" from="273902602#1" to="1315066558"/>
    <trip id="motorcycle183" type="motorcycle_motorcycle" depart="3374.16" departLane="best" from="9122810#1" to="423728986"/>
    <trip id="motorcycle184" type="motorcycle_motorcycle" depart="3392.60" departLane="best" from="-9148332#2" to="9147358#0"/>
    <trip id="motorcycle185" type="motorcycle_motorcycle" depart="3411.03" departLane="best" departSpeed="max" from="563606218" to="180244639#0"/>
    <trip id="motorcycle186" type="motorcycle_motorcycle" depart="3429.47" departLane="best" from="9122370#6" to="283536956#0"/>
    <trip id="motorcycle187" type="motorcycle_motorcycle" depart="3447.91" departLane="best" from="-276157215#9" to="9151585#4"/>
    <trip id="motorcycle188" type="motorcycle_motorcycle" depart="3466.35" departLane="best" from="-586413246#3" to="-9138488#4"/>
    <trip id="motorcycle189" type="motorcycle_motorcycle" depart="3484.79" departLane="best" from="-9151585#0" to="-9142394#5"/>
    <trip id="motorcycle190" type="motorcycle_motorcycle" depart="3503.22" departLane="best" from="1333430095#1" to="9138488#15"/>
    <trip id="motorcycle191" type="motorcycle_motorcycle" depart="3521.66" departLane="best" from="9122370#6" to="631653305#0"/>
    <trip id="motorcycle192" type="motorcycle_motorcycle" depart="3540.10" departLane="best" from="267116467" to="9148332#6"/>
    <trip id="motorcycle193" type="motorcycle_motorcycle" depart="3558.54" departLane="best" from="551574173" to="9151585#6"/>
    <trip id="motorcycle194" type="motorcycle_motorcycle" depart="3576.98" departLane="best" from="565255794" to="9148332#9"/>
    <trip id="motorcycle195" type="motorcycle_motorcycle" depart="3595.41" departLane="best" from="-631611869#0" to="586413259#3"/>
    <trip id="motorcycle196" type="motorcycle_motorcycle" depart="3613.85" departLane="best" from="180244636#7" to="129601762#1"/>
    <trip id="motorcycle197" type="motorcycle_motorcycle" depart="3632.29" departLane="best" from="-9151585#5" to="565255792#4"/>
    <trip id="motorcycle198" type="motorcycle_motorcycle" depart="3650.73" departLane="best" from="9137054#4" to="586413246#3"/>
    <trip id="motorcycle199" type="motorcycle_motorcycle" depart="3669.17" departLane="best" from="1044405760#7" to="-287145656#4"/>
    <trip id="motorcycle201" type="motorcycle_motorcycle" depart="3706.04" departLane="best" from="9122370#6" to="533665196#0"/>
    <trip id="motorcycle202" type="motorcycle_motorcycle" depart="3724.48" departLane="best" from="-568373941#1" to="-586413246#7"/>
    <trip id="motorcycle203" type="motorcycle_motorcycle" depart="3742.92" departLane="best" from="1044405760#5" to="-9148332#0"/>
    <trip id="motorcycle204" type="motorcycle_motorcycle" depart="3761.36" departLane="best" from="180244652#0" to="-551576182"/>
    <trip id="motorcycle205" type="motorcycle_motorcycle" depart="3779.79" departLane="best" from="-1315066559" to="586002130#0"/>
    <trip id="motorcycle206" type="motorcycle_motorcycle" depart="3798.23" departLane="best" from="-1315066560" to="586413246#4"/>
    <trip id="motorcycle207" type="motorcycle_motorcycle" depart="3816.67" departLane="best" departSpeed="max" from="-210830412" to="-586077896#3"/>
    <trip id="motorcycle208" type="motorcycle_motorcycle" depart="3835.11" departLane="best" from="-540665092#1" to="-9122810#3"/>
    <trip id="motorcycle209" type="motorcycle_motorcycle" depart="3853.55" departLane="best" from="180244636#1" to="9151585#0"/>
    <trip id="motorcycle210" type="motorcycle_motorcycle" depart="3871.98" departLane="best" from="-540665092#7" to="-656443274#5"/>
    <trip id="motorcycle211" type="motorcycle_motorcycle" depart="3890.42" departLane="best" from="-586413246#17" to="-287145664#1"/>
    <trip id="motorcycle212" type="motorcycle_motorcycle" depart="3908.86" departLane="best" from="-540665092#10" to="-287145664#0"/>
    <trip id="motorcycle213" type="motorcycle_motorcycle" depart="3927.30" departLane="best" from="180244636#6" to="586002131#2"/>
    <trip id="motorcycle214" type="motorcycle_motorcycle" depart="3945.74" departLane="best" from="505368797#4" to="-568382083#3"/>
    <trip id="motorcycle215" type="motorcycle_motorcycle" depart="3964.17" departLane="best" from="129601762#1" to="565245613"/>
    <trip id="motorcycle216" type="motorcycle_motorcycle" depart="3982.61" departLane="best" from="-656443274#5" to="276157215#2"/>
    <trip id="motorcycle217" type="motorcycle_motorcycle" depart="4001.05" departLane="best" from="-540665092#11" to="-586080837"/>
    <trip id="motorcycle218" type="motorcycle_motorcycle" depart="4019.49" departLane="best" from="505368797#0" to="-1044405760#7"/>
    <trip id="motorcycle219" type="motorcycle_motorcycle" depart="4037.93" departLane="best" from="180244636#4" to="-656443275"/>
    <trip id="motorcycle220" type="motorcycle_motorcycle" depart="4056.36" departLane="best" from="-540665092#3" to="-290619644#1"/>
    <trip id="motorcycle221" type="motorcycle_motorcycle" depart="4074.80" departLane="best" from="1088638458" to="-1209313234"/>
    <trip id="motorcycle222" type="motorcycle_motorcycle" depart="4093.24" departLane="best" from="505368797#3" to="-1338769043#4"/>
    <trip id="motorcycle224" type="motorcycle_motorcycle" depart="4130.12" departLane="best" from="656443274#4" to="-9148293"/>
    <trip id="motorcycle225" type="motorcycle_motorcycle" depart="4148.55" departLane="best" from="180244636#7" to="-341623766#3"/>
    <trip id="motorcycle226" type="motorcycle_motorcycle" depart="4166.99" departLane="best" from="267110730#3" to="-9122810#2"/>