<?xml version="1.0" encoding="UTF-8"?>

<!-- generated on 2025-03-06 07:22:20.790767 by osmWebWizard.py v1_22_0+0002-63e50f52594
<configuration>
    <net-file value="C:\Users\evans\Sumo\2025-03-06-07-22-14\osm.net.xml.gz"/>
    <output-trip-file value="C:\Users\evans\Sumo\2025-03-06-07-22-14\osm.motorcycle.trips.xml"/>
    <route-file value="C:\Users\evans\Sumo\2025-03-06-07-22-14\osm.motorcycle.rou.xml"/>
    <prefix value="motorcycle"/>
    <trip-attributes value="departLane=&quot;best&quot;"/>
    <fringe-start-attributes value="departSpeed=&quot;max&quot;"/>
    <vehicle-class value="motorcycle"/>
    <fringe-factor value="2"/>
    <vclass value="motorcycle"/>
    <via-edge-types value="highway.motorway,highway.motorway_link,highway.trunk_link,highway.primary_link,highway.secondary_link,highway.tertiary_link"/>
    <max-distance value="1200.0"/>
    <remove-loops value="True"/>
    <validate value="True"/>
    <end value="86400.0"/>
    <insertion-density value="4.0"/>
</configuration>
-->

<!-- generated on 2025-03-06 07:22:20 by Eclipse SUMO duarouter Version 1.22.0
<duarouterConfiguration xmlns:xsi="http://www.w3.org/2001/XMLSchema-instance" xsi:noNamespaceSchemaLocation="http://sumo.dlr.de/xsd/duarouterConfiguration.xsd">

    <input>
        <net-file value="C:\Users\evans\Sumo\2025-03-06-07-22-14\osm.net.xml.gz"/>
        <route-files value="C:\Users\evans\Sumo\2025-03-06-07-22-14\osm.motorcycle.trips.xml"/>
    </input>

    <output>
        <output-file value="C:\Users\evans\Sumo\2025-03-06-07-22-14\osm.motorcycle.trips.xml.tmp"/>
        <alternatives-output value="NUL"/>
        <write-trips value="true"/>
    </output>

    <processing>
        <remove-loops value="true"/>
    </processing>

    <time>
        <begin value="0.0"/>
        <end value="86400.0"/>
    </time>

    <report>
        <no-warnings value="true"/>
        <ignore-errors value="true"/>
        <no-step-log value="true"/>
    </report>

</duarouterConfiguration>
-->

<routes xmlns:xsi="http://www.w3.org/2001/XMLSchema-instance" xsi:noNamespaceSchemaLocation="http://sumo.dlr.de/xsd/routes_file.xsd">
    <vType id="motorcycle_motorcycle" vClass="motorcycle"/>
    <trip id="motorcycle0" type="motorcycle_motorcycle" depart="0.00" departLane="best" from="565255792#6" to="-180244636#0"/>
    <trip id="motorcycle1" type="motorcycle_motorcycle" depart="100.11" departLane="best" from="-586413246#4" to="-586413246#14"/>
    <trip id="motorcycle2" type="motorcycle_motorcycle" depart="200.21" departLane="best" from="586413246#11" to="565255792#7"/>
    <trip id="motorcycle4" type="motorcycle_motorcycle" depart="400.42" departLane="best" departSpeed="max" from="180244636#0" to="-180244636#0"/>
    <trip id="motorcycle5" type="motorcycle_motorcycle" depart="500.53" departLane="best" from="-586413246#13" to="276157215#1"/>
    <trip id="motorcycle6" type="motorcycle_motorcycle" depart="600.63" departLane="best" from="180244636#4" to="586413246#11"/>
    <trip id="motorcycle7" type="motorcycle_motorcycle" depart="700.74" departLane="best" from="565255794" to="276157215#6"/>
    <trip id="motorcycle9" type="motorcycle_motorcycle" depart="900.95" departLane="best" from="-586413246#4" to="-1315084524"/>
    <trip id="motorcycle10" type="motorcycle_motorcycle" depart="1001.06" departLane="best" from="-586413246#3" to="586002131#0"/>
    <trip id="motorcycle11" type="motorcycle_motorcycle" depart="1101.16" departLane="best" from="9129472" to="-565255794"/>
    <trip id="motorcycle12" type="motorcycle_motorcycle" depart="1201.27" departLane="best" from="-9151585#2" to="9129472"/>
    <trip id="motorcycle14" type="motorcycle_motorcycle" depart="1401.48" departLane="best" from="586413249#1" to="565245613"/>
    <trip id="motorcycle15" type="motorcycle_motorcycle" depart="1501.58" departLane="best" from="-586413246#3" to="-586413246#1"/>
    <trip id="motorcycle16" type="motorcycle_motorcycle" depart="1601.69" departLane="best" from="276157215#3" to="9151585#4"/>
    <trip id="motorcycle17" type="motorcycle_motorcycle" depart="1701.79" departLane="best" from="-9151585#5" to="276157215#6"/>
    <trip id="motorcycle18" type="motorcycle_motorcycle" depart="1801.90" departLane="best" from="586413246#6" to="565255792#0"/>
    <trip id="motorcycle21" type="motorcycle_motorcycle" depart="2102.22" departLane="best" from="-586413246#14" to="-586413246#5"/>
    <trip id="motorcycle22" type="motorcycle_motorcycle" depart="2202.32" departLane="best" departSpeed="max" from="-180244652" to="-586413246#15"/>
    <trip id="motorcycle23" type="motorcycle_motorcycle" depart="2302.43" departLane="best" from="-276157215#2" to="586413246#4"/>
    <trip id="motorcycle24" type="motorcycle_motorcycle" depart="2402.53" departLane="best" from="565255792#6" to="9151585#3"/>
    <trip id="motorcycle25" type="motorcycle_motorcycle" depart="2502.64" departLane="best" from="-9151585#4" to="-586413246#12"/>
    <trip id="motorcycle26" type="motorcycle_motorcycle" depart="2602.74" departLane="best" from="-586413246#2" to="586413267#1"/>
    <trip id="motorcycle27" type="motorcycle_motorcycle" depart="2702.85" departLane="best" from="565255792#7" to="565245613"/>
    <trip id="motorcycle28" type="motorcycle_motorcycle" depart="2802.96" departLane="best" from="565255794" to="586413246#1"/>
    <trip id="motorcycle30" type="motorcycle_motorcycle" depart="3003.17" departLane="best" from="-9151585#6" to="565255792#2"/>
    <trip id="motorcycle31" type="motorcycle_motorcycle" depart="3103.27" departLane="best" from="-276157215#5" to="-565255794"/>
    <trip id="motorcycle32" type="motorcycle_motorcycle" depart="3203.38" departLane="best" from="586413246#8" to="586413246#16"/>
    <trip id="motorcycle33" type="motorcycle_motorcycle" depart="3303.48" departLane="best" from="-586413246#15" to="-180244636#1"/>
    <trip id="motorcycle34" type="motorcycle_motorcycle" depart="3403.59" departLane="best" from="-586413249#0" to="586413246#3"/>
    <trip id="motorcycle35" type="motorcycle_motorcycle" depart="3503.69" departLane="best" from="-586413246#12" to="-9129472"/>
    <trip id="motorcycle36" type="motorcycle_motorcycle" depart="3603.80" departLane="best" from="565255792#3" to="-586413249#0"/>
    <trip id="motorcycle37" type="motorcycle_motorcycle" depart="3703.91" departLane="best" from="565255794" to="9152018"/>
    <trip id="motorcycle39" type="motorcycle_motorcycle" depart="3904.12" departLane="best" from="-586413246#2" to="-586413246#17"/>
    <trip id="motorcycle40" type="motorcycle_motorcycle" depart="4004.22" departLane="best" from="276157217" to="586413246#2"/>
    <trip id="motorcycle42" type="motorcycle_motorcycle" depart="4204.43" departLane="best" departSpeed="max" from="1315084524" to="-586413246#13"/>
    <trip id="motorcycle43" type="motorcycle_motorcycle" depart="4304.54" departLane="best" from="-9152018" to="-276157215#1"/>
    <trip id="motorcycle44" type="motorcycle_motorcycle" depart="4404.64" departLane="best" from="-276157215#0" to="-180244636#3"/>
    <trip id="motorcycle45" type="motorcycle_motorcycle" depart="4504.75" departLane="best" from="-276157215#3" to="565255792#1"/>
    <trip id="motorcycle46" type="motorcycle_motorcycle" depart="4604.86" departLane="best" from="-586413246#18" to="-180244636#3"/>
    <trip id="motorcycle48" type="motorcycle_motorcycle" depart="4805.07" departLane="best" from="-9152018" to="276157215#4"/>
    <trip id="motorcycle49" type="motorcycle_motorcycle" depart="4905.17" departLane="best" from="-9151585#4" to="586413254#1"/>
    <trip id="motorcycle50" type="motorcycle_motorcycle" depart="5005.28" departLane="best" from="180244636#2" to="-586413246#0"/>
    <trip id="motorcycle51" type="motorcycle_motorcycle" depart="5105.38" departLane="best" departSpeed="max" from="586002130#0" to="276157215#5"/>
    <trip id="motorcycle52" type="motorcycle_motorcycle" depart="5205.49" departLane="best" from="-586413246#2" to="565255792#2"/>
    <trip id="motorcycle53" type="motorcycle_motorcycle" depart="5305.59" departLane="best" from="-276157215#3" to="-180244636#4"/>
    <trip id="motorcycle54" type="motorcycle_motorcycle" depart="5405.70" departLane="best" from="180244636#3" to="9151585#0"/>
    <trip id="motorcycle55" type="motorcycle_motorcycle" depart="5505.81" departLane="best" from="586413259#0" to="-586413246#2"/>
    <trip id="motorcycle57" type="motorcycle_motorcycle" depart="5706.02" departLane="best" from="586413266#1" to="586413259#0"/>
    <trip id="motorcycle58" type="motorcycle_motorcycle" depart="5806.12" departLane="best" from="-586413246#7" to="565255792#2"/>
    <trip id="motorcycle59" type="motorcycle_motorcycle" depart="5906.23" departLane="best" from="565255792#2" to="-565255794"/>
    <trip id="motorcycle60" type="motorcycle_motorcycle" depart="6006.33" departLane="best" from="586413246#14" to="276157215#5"/>
    <trip id="motorcycle61" type="motorcycle_motorcycle" depart="6106.44" departLane="best" from="586413246#17" to="276157215#4"/>
    <trip id="motorcycle62" type="motorcycle_motorcycle" depart="6206.54" departLane="best" from="180244636#1" to="586413249#1"/>
    <trip id="motorcycle63" type="motorcycle_motorcycle" depart="6306.65" departLane="best" from="180244636#3" to="586413266#3"/>
    <trip id="motorcycle64" type="motorcycle_motorcycle" depart="6406.76" departLane="best" from="586413259#1" to="586413246#6"/>
    <trip id="motorcycle65" type="motorcycle_motorcycle" depart="6506.86" departLane="best" from="586413246#8" to="-180244636#4"/>
    <trip id="motorcycle66" type="motorcycle_motorcycle" depart="6606.97" departLane="best" from="586413259#1" to="9151585#0"/>
    <trip id="motorcycle67" type="motorcycle_motorcycle" depart="6707.07" departLane="best" from="-276157215#0" to="180244652"/>
    <trip id="motorcycle68" type="motorcycle_motorcycle" depart="6807.18" departLane="best" departSpeed="max" from="-180244652" to="-586413246#14"/>
    <trip id="motorcycle69" type="motorcycle_motorcycle" depart="6907.28" departLane="best" from="586413246#15" to="276157215#3"/>
    <trip id="motorcycle70" type="motorcycle_motorcycle" depart="7007.39" departLane="best" from="-180244637#0" to="276157215#6"/>
    <trip id="motorcycle71" type="motorcycle_motorcycle" depart="7107.49" departLane="best" from="-586413246#2" to="586413259#0"/>
    <trip id="motorcycle72" type="motorcycle_motorcycle" depart="7207.60" departLane="best" departSpeed="max" from="180244636#0" to="586413246#12"/>
    <trip id="motorcycle73" type="motorcycle_motorcycle" depart="7307.71" departLane="best" from="-276157215#3" to="586413246#1"/>
    <trip id="motorcycle74" type="motorcycle_motorcycle" depart="7407.81" departLane="best" from="-586413246#11" to="-586413246#8"/>
    <trip id="motorcycle75" type="motorcycle_motorcycle" depart="7507.92" departLane="best" from="-9152018" to="586413266#3"/>
    <trip id="motorcycle76" type="motorcycle_motorcycle" depart="7608.02" departLane="best" from="180244636#1" to="276157215#2"/>
    <trip id="motorcycle77" type="motorcycle_motorcycle" depart="7708.13" departLane="best" from="-276157215#4" to="-586413246#14"/>
    <trip id="motorcycle79" type="motorcycle_motorcycle" depart="7908.34" departLane="best" from="-586413246#15" to="-586413246#13"/>
    <trip id="motorcycle80" type="motorcycle_motorcycle" depart="8008.44" departLane="best" departSpeed="max" from="-180244652" to="565255792#1"/>
    <trip id="motorcycle81" type="motorcycle_motorcycle" depart="8108.55" departLane="best" from="586413246#14" to="586413263#1"/>
    <trip id="motorcycle82" type="motorcycle_motorcycle" depart="8208.66" departLane="best" from="-586413249#0" to="180244637#0"/>
    <trip id="motorcycle83" type="motorcycle_motorcycle" depart="8308.76" departLane="best" from="586413246#16" to="565255792#6"/>
    <trip id="motorcycle84" type="motorcycle_motorcycle" depart="8408.87" departLane="best" from="-586413246#13" to="276157215#4"/>
    <trip id="motorcycle86" type="motorcycle_motorcycle" depart="8609.08" departLane="best" from="180244636#5" to="586413246#17"/>
    <trip id="motorcycle87" type="motorcycle_motorcycle" depart="8709.18" departLane="best" from="-586413246#3" to="-586413246#0"/>
    <trip id="motorcycle88" type="motorcycle_motorcycle" depart="8809.29" departLane="best" from="-276157215#1" to="-180244636#4"/>
    <trip id="motorcycle90" type="motorcycle_motorcycle" depart="9009.50" departLane="best" from="586413246#1" to="565255792#7"/>
    <trip id="motorcycle92" type="motorcycle_motorcycle" depart="9209.71" departLane="best" departSpeed="max" from="1315084524" to="9129472"/>
    <trip id="motorcycle93" type="motorcycle_motorcycle" depart="9309.82" departLane="best" from="586413254#1" to="-586413246#17"/>
    <trip id="motorcycle94" type="motorcycle_motorcycle" depart="9409.92" departLane="best" from="-586413246#0" to="-180244637#0"/>
    <trip id="motorcycle95" type="motorcycle_motorcycle" depart="9510.03" departLane="best" departSpeed="max" from="180244636#0" to="-586413246#4"/>
    <trip id="motorcycle96" type="motorcycle_motorcycle" depart="9610.13" departLane="best" from="-586413246#17" to="586413266#2"/>
    <trip id="motorcycle97" type="motorcycle_motorcycle" depart="9710.24" departLane="best" from="180244636#2" to="586413254#1"/>
    <trip id="motorcycle98" type="motorcycle_motorcycle" depart="9810.34" departLane="best" from="-276157215#5" to="-180244636#3"/>
    <trip id="motorcycle99" type="motorcycle_motorcycle" depart="9910.45" departLane="best" from="-9152018" to="586413246#7"/>
    <trip id="motorcycle100" type="motorcycle_motorcycle" depart="10010.56" departLane="best" from="-9151585#3" to="586413266#3"/>
    <trip id="motorcycle102" type="motorcycle_motorcycle" depart="10210.77" departLane="best" from="180244637#1" to="586413246#13"/>
    <trip id="motorcycle103" type="motorcycle_motorcycle" depart="10310.87" departLane="best" departSpeed="max" from="1315084524" to="-180244636#4"/>
    <trip id="motorcycle104" type="motorcycle_motorcycle" depart="10410.98" departLane="best" from="9151585#5" to="9151585#6"/>
    <trip id="motorcycle105" type="motorcycle_motorcycle" depart="10511.08" departLane="best" from="586413246#2" to="586413246#17"/>
    <trip id="motorcycle106" type="motorcycle_motorcycle" depart="10611.19" departLane="best" from="180244636#3" to="180244636#3"/>
    <trip id="motorcycle107" type="motorcycle_motorcycle" depart="10711.29" departLane="best" from="-9151585#2" to="9152018"/>
    <trip id="motorcycle108" type="motorcycle_motorcycle" depart="10811.40" departLane="best" from="-276157215#5" to="586413246#0"/>
    <trip id="motorcycle111" type="motorcycle_motorcycle" depart="11111.72" departLane="best" from="-276157215#4" to="586413246#12"/>
    <trip id="motorcycle115" type="motorcycle_motorcycle" depart="11512.14" departLane="best" departSpeed="max" from="-180244652" to="-586413246#0"/>
    <trip id="motorcycle116" type="motorcycle_motorcycle" depart="11612.24" departLane="best" from="565255792#0" to="565255792#7"/>
    <trip id="motorcycle117" type="motorcycle_motorcycle" depart="11712.35" departLane="best" from="-586413246#15" to="276157215#2"/>
    <trip id="motorcycle118" type="motorcycle_motorcycle" depart="11812.46" departLane="best" from="586413259#2" to="-586413246#17"/>
    <trip id="motorcycle119" type="motorcycle_motorcycle" depart="11912.56" departLane="best" from="565255792#0" to="565255792#0"/>
    <trip id="motorcycle120" type="motorcycle_motorcycle" depart="12012.67" departLane="best" from="180244628" to="531094133#1"/>
    <trip id="motorcycle121" type="motorcycle_motorcycle" depart="12112.77" departLane="best" from="-276157215#1" to="586413267#1"/>
    <trip id="motorcycle122" type="motorcycle_motorcycle" depart="12212.88" departLane="best" from="-586413246#11" to="586002131#2"/>
    <trip id="motorcycle123" type="motorcycle_motorcycle" depart="12312.98" departLane="best" from="-586413246#16" to="9152018"/>
    <trip id="motorcycle125" type="motorcycle_motorcycle" depart="12513.19" departLane="best" from="-586413249#0" to="586413246#13"/>
    <trip id="motorcycle127" type="motorcycle_motorcycle" depart="12713.41" departLane="best" from="9152018" to="9152018"/>
    <trip id="motorcycle128" type="motorcycle_motorcycle" depart="12813.51" departLane="best" departSpeed="max" from="-180244652" to="-586413246#12"/>
    <trip id="motorcycle129" type="motorcycle_motorcycle" depart="12913.62" departLane="best" from="-586413246#2" to="586413267#1"/>
    <trip id="motorcycle130" type="motorcycle_motorcycle" depart="13013.72" departLane="best" from="586413259#1" to="586413259#1"/>
    <trip id="motorcycle131" type="motorcycle_motorcycle" depart="13113.83" departLane="best" from="-9151585#4" to="-565255794"/>
    <trip id="motorcycle132" type="motorcycle_motorcycle" depart="13213.93" departLane="best" from="-586413246#7" to="586002131#1"/>
    <trip id="motorcycle133" type="motorcycle_motorcycle" depart="13314.04" departLane="best" from="565255792#3" to="9151585#6"/>
    <trip id="motorcycle134" type="motorcycle_motorcycle" depart="13414.14" departLane="best" from="565255794" to="-1315084524"/>
    <trip id="motorcycle135" type="motorcycle_motorcycle" depart="13514.25" departLane="best" from="586413246#5" to="586413246#7"/>
    <trip id="motorcycle137" type="motorcycle_motorcycle" depart="13714.46" departLane="best" departSpeed="max" from="-276157215#6" to="-276157215#2"/>
    <trip id="motorcycle138" type="motorcycle_motorcycle" depart="13814.57" departLane="best" from="276157215#3" to="276157215#6"/>
    <trip id="motorcycle139" type="motorcycle_motorcycle" depart="13914.67" departLane="best" from="-586413246#3" to="565245613"/>
    <trip id="motorcycle140" type="motorcycle_motorcycle" depart="14014.78" departLane="best" from="586413246#0" to="586413246#11"/>
    <trip id="motorcycle141" type="motorcycle_motorcycle" depart="14114.88" departLane="best" from="565255792#6" to="586413246#2"/>
    <trip id="motorcycle142" type="motorcycle_motorcycle" depart="14214.99" departLane="best" from="180244637#1" to="586413263#1"/>
    <trip id="motorcycle144" type="motorcycle_motorcycle" depart="14415.20" departLane="best" departSpeed="max" from="180244636#0" to="-586413246#4"/>
    <trip id="motorcycle145" type="motorcycle_motorcycle" depart="14515.31" departLane="best" from="180244636#1" to="586413246#16"/>
    <trip id="motorcycle146" type="motorcycle_motorcycle" depart="14615.41" departLane="best" from="565255792#6" to="586413246#2"/>
    <trip id="motorcycle147" type="motorcycle_motorcycle" depart="14715.52" departLane="best" from="586413246#12" to="276157215#6"/>
    <trip id="motorcycle148" type="motorcycle_motorcycle" depart="14815.62" departLane="best" departSpeed="max" from="180244636#0" to="-1315084524"/>
    <trip id="motorcycle149" type="motorcycle_motorcycle" depart="14915.73" departLane="best" departSpeed="max" from="-180244652" to="586413259#1"/>
    <trip id="motorcycle150" type="motorcycle_motorcycle" depart="15015.83" departLane="best" from="586413263#1" to="276157215#6"/>
    <trip id="motorcycle151" type="motorcycle_motorcycle" depart="15115.94" departLane="best" from="-586413246#7" to="531094133#1"/>
    <trip id="motorcycle152" type="motorcycle_motorcycle" depart="15216.04" departLane="best" from="-276157217" to="276157215#3"/>
    <trip id="motorcycle153" type="motorcycle_motorcycle" depart="15316.15" departLane="best" from="-586413246#8" to="586413259#3"/>
    <trip id="motorcycle154" type="motorcycle_motorcycle" depart="15416.26" departLane="best" from="-586413246#2" to="586413254#1"/>
    <trip id="motorcycle155" type="motorcycle_motorcycle" depart="15516.36" departLane="best" from="586413259#3" to="-586413246#12"/>
    <trip id="motorcycle156" type="motorcycle_motorcycle" depart="15616.47" departLane="best" from="-586413246#17" to="276157215#0"/>
    <trip id="motorcycle157" type="motorcycle_motorcycle" depart="15716.57" departLane="best" from="586413246#17" to="586413259#1"/>
    <trip id="motorcycle158" type="motorcycle_motorcycle" depart="15816.68" departLane="best" departSpeed="max" from="1315084524" to="565255792#0"/>
    <trip id="motorcycle160" type="motorcycle_motorcycle" depart="16016.89" departLane="best" from="586413256" to="9151585#4"/>
    <trip id="motorcycle161" type="motorcycle_motorcycle" depart="16116.99" departLane="best" from="-586413246#4" to="586413259#1"/>
    <trip id="motorcycle162" type="motorcycle_motorcycle" depart="16217.10" departLane="best" from="180244636#4" to="586413246#11"/>
    <trip id="motorcycle163" type="motorcycle_motorcycle" depart="16317.21" departLane="best" from="531094133#1" to="586413266#3"/>
    <trip id="motorcycle165" type="motorcycle_motorcycle" depart="16517.42" departLane="best" from="-586413246#4" to="-586413246#2"/>
    <trip id="motorcycle166" type="motorcycle_motorcycle" depart="16617.52" departLane="best" from="586413246#18" to="276157215#1"/>
    <trip id="motorcycle167" type="motorcycle_motorcycle" depart="16717.63" departLane="best" from="565255792#3" to="-586413249#0"/>
    <trip id="motorcycle168" type="motorcycle_motorcycle" depart="16817.73" departLane="best" from="-586413246#14" to="-586413246#4"/>
    <trip id="motorcycle169" type="motorcycle_motorcycle" depart="16917.84" departLane="best" from="180244636#4" to="-586413246#7"/>
    <trip id="motorcycle170" type="motorcycle_motorcycle" depart="17017.94" departLane="best" from="586413246#2" to="586413246#14"/>
    <trip id="motorcycle171" type="motorcycle_motorcycle" depart="17118.05" departLane="best" from="180244636#4" to="-586413246#1"/>
    <trip id="motorcycle173" type="motorcycle_motorcycle" depart="17318.26" departLane="best" from="-9151585#3" to="586413246#4"/>
    <trip id="motorcycle174" type="motorcycle_motorcycle" depart="17418.37" departLane="best" from="565255792#7" to="-586080837"/>
    <trip id="motorcycle175" type="motorcycle_motorcycle" depart="17518.47" departLane="best" from="-9151585#5" to="276157215#5"/>
    <trip id="motorcycle176" type="motorcycle_motorcycle" depart="17618.58" departLane="best" from="-9129472" to="276157215#2"/>
    <trip id="motorcycle177" type="motorcycle_motorcycle" depart="17718.68" departLane="best" from="-9151585#4" to="-586080837"/>
    <trip id="motorcycle178" type="motorcycle_motorcycle" depart="17818.79" departLane="best" from="-9151585#3" to="586413246#2"/>
    <trip id="motorcycle179" type="motorcycle_motorcycle" depart="17918.89" departLane="best" from="-276157215#3" to="-180244636#4"/>
    <trip id="motorcycle180" type="motorcycle_motorcycle" depart="18019.00" departLane="best" from="-586413246#1" to="586413254#1"/>
    <trip id="motorcycle181" type="motorcycle_motorcycle" depart="18119.11" departLane="best" from="565255792#2" to="276157215#1"/>
    <trip id="motorcycle183" type="motorcycle_motorcycle" depart="18319.32" departLane="best" from="-586413246#18" to="586002131#1"/>
    <trip id="motorcycle184" type="motorcycle_motorcycle" depart="18419.42" departLane="best" from="180244636#1" to="586413266#3"/>
    <trip id="motorcycle185" type="motorcycle_motorcycle" depart="18519.53" departLane="best" from="-276157215#3" to="586413246#0"/>
    <trip id="motorcycle186" type="motorcycle_motorcycle" depart="18619.63" departLane="best" from="586413246#12" to="565255792#6"/>
    <trip id="motorcycle187" type="motorcycle_motorcycle" depart="18719.74" departLane="best" from="-9151585#3" to="180244637#0"/>
    <trip id="motorcycle189" type="motorcycle_motorcycle" depart="18919.95" departLane="best" from="586413254#1" to="586413249#1"/>
    <trip id="motorcycle190" type="motorcycle_motorcycle" depart="19020.06" departLane="best" from="586413246#0" to="586413246#7"/>
    <trip id="motorcycle191" type="motorcycle_motorcycle" depart="19120.16" departLane="best" from="586413246#8" to="-180244636#1"/>
    <trip id="motorcycle192" type="motorcycle_motorcycle" depart="19220.27" departLane="best" departSpeed="max" from="1315084524" to="586413246#6"/>
    <trip id="motorcycle193" type="motorcycle_motorcycle" depart="19320.37" departLane="best" from="-276157215#5" to="-180244636#3"/>
    <trip id="motorcycle194" type="motorcycle_motorcycle" depart="19420.48" departLane="best" from="9129472" to="565255792#7"/>
    <trip id="motorcycle195" type="motorcycle_motorcycle" depart="19520.58" departLane="best" from="586413263#1" to="565245613"/>
    <trip id="motorcycle196" type="motorcycle_motorcycle" depart="19620.69" departLane="best" from="-586413246#7" to="276157215#6"/>
    <trip id="motorcycle197" type="motorcycle_motorcycle" depart="19720.79" departLane="best" from="180244636#1" to="-586413246#5"/>
    <trip id="motorcycle200" type="motorcycle_motorcycle" depart="20021.11" departLane="best" from="180244636#1" to="586413246#12"/>
    <trip id="motorcycle201" type="motorcycle_motorcycle" depart="20121.22" departLane="best" from="180244636#5" to="586413263#1"/>
    <trip id="motorcycle203" type="motorcycle_motorcycle" depart="20321.43" departLane="best" from="276157215#0" to="276157215#2"/>
    <trip id="motorcycle204" type="motorcycle_motorcycle" depart="20421.53" departLane="best" from="565255792#5" to="-586413254#0"/>
    <trip id="motorcycle205" type="motorcycle_motorcycle" depart="20521.64" departLane="best" from="586413246#5" to="586413246#13"/>
    <trip id="motorcycle206" type="motorcycle_motorcycle" depart="20621.74" departLane="best" departSpeed="max" from="586002130#0" to="-586413246#14"/>
    <trip id="motorcycle207" type="motorcycle_motorcycle" depart="20721.85" departLane="best" from="-586413246#11" to="-180244636#0"/>
    <trip id="motorcycle208" type="motorcycle_motorcycle" depart="20821.96" departLane="best" from="-586413246#17" to="180244645"/>
    <trip id="motorcycle209" type="motorcycle_motorcycle" depart="20922.06" departLane="best" from="-586413249#1" to="180244637#0"/>
    <trip id="motorcycle210" type="motorcycle_motorcycle" depart="21022.17" departLane="best" from="180244628" to="565255792#1"/>
    <trip id="motorcycle211" type="motorcycle_motorcycle" depart="21122.27" departLane="best" from="-586413246#1" to="586002131#0"/>
    <trip id="motorcycle213" type="motorcycle_motorcycle" depart="21322.48" departLane="best" from="565255794" to="-1315084524"/>
    <trip id="motorcycle214" type="motorcycle_motorcycle" depart="21422.59" departLane="best" from="586413246#13" to="586413246#15"/>
    <trip id="motorcycle215" type="motorcycle_motorcycle" depart="21522.69" departLane="best" from="-276157215#2" to="-180244636#3"/>
    <trip id="motorcycle216" type="motorcycle_motorcycle" depart="21622.80" departLane="best" from="180244628" to="9151585#1"/>
    <trip id="motorcycle217" type="motorcycle_motorcycle" depart="21722.91" departLane="best" from="-276157215#0" to="-180244636#3"/>
    <trip id="motorcycle218" type="motorcycle_motorcycle" depart="21823.01" departLane="best" from="-586413246#17" to="586413249#1"/>
    <trip id="motorcycle219" type="motorcycle_motorcycle" depart="21923.12" departLane="best" from="180244636#3" to="-586413246#2"/>
    <trip id="motorcycle221" type="motorcycle_motorcycle" depart="22123.33" departLane="best" from="565255792#1" to="9151585#0"/>
    <trip id="motorcycle222" type="motorcycle_motorcycle" depart="22223.43" departLane="best" from="586413259#2" to="565245613"/>
    <trip id="motorcycle223" type="motorcycle_motorcycle" depart="22323.54" departLane="best" from="-586413246#0" to="276157215#1"/>
    <trip id="motorcycle224" type="motorcycle_motorcycle" depart="22423.64" departLane="best" from="-586413246#6" to="276157215#6"/>
    <trip id="motorcycle225" type="motorcycle_motorcycle" depart="22523.75" departLane="best" from="586413259#3" to="-586413246#12"/>
    <trip id="motorcycle226" type="motorcycle_motorcycle" depart="22623.86" departLane="best" from="180244637#0" to="586413246#18"/>
    <trip id="motorcycle227" type="motorcycle_motorcycle" depart="22723.96" departLane="best" from="586413246#17" to="565255792#2"/>
    <trip id="motorcycle228" type="motorcycle_motorcycle" depart="22824.07" departLane="best" from="586413246#15" to="276157215#3"/>
    <trip id="motorcycle229" type="motorcycle_motorcycle" depart="22924.17" departLane="best" from="565255792#5" to="586413246#3"/>
    <trip id="motorcycle230" type="motorcycle_motorcycle" depart="23024.28" departLane="best" departSpeed="max" from="-180244652" to="-586413246#5"/>
    <trip id="motorcycle231" type="motorcycle_motorcycle" depart="23124.38" departLane="best" from="-586413246#3" to="586413254#1"/>
    <trip id="motorcycle232" type="motorcycle_motorcycle" depart="23224.49" departLane="best" from="276157215#3" to="276157215#5"/>
    <trip id="motorcycle235" type="motorcycle_motorcycle" depart="23524.81" departLane="best" departSpeed="max" from="1315084524" to="276157215#6"/>
    <trip id="motorcycle236" type="motorcycle_motorcycle" depart="23624.91" departLane="best" from="180244628" to="586413246#12"/>
    <trip id="motorcycle237" type="motorcycle_motorcycle" depart="23725.02" departLane="best" departSpeed="max" from="180244636#0" to="586413263#1"/>
    <trip id="motorcycle239" type="motorcycle_motorcycle" depart="23925.23" departLane="best" from="-586413249#0" to="586413246#15"/>
    <trip id="motorcycle240" type="motorcycle_motorcycle" depart="24025.33" departLane="best" from="-9151585#5" to="-1315084524"/>
    <trip id="motorcycle241" type="motorcycle_motorcycle" depart="24125.44" departLane="best" from="-9151585#2" to="586413246#13"/>
    <trip id="motorcycle242" type="motorcycle_motorcycle" depart="24225.54" departLane="best" from="-586413249#1" to="9151585#0"/>
    <trip id="motorcycle243" type="motorcycle_motorcycle" depart="24325.65" departLane="best" from="180244628" to="586413246#12"/>
    <trip id="motorcycle244" type="motorcycle_motorcycle" depart="24425.76" departLane="best" from="-276157215#4" to="565245613"/>