<?xml version="1.0" encoding="UTF-8"?>

<!-- generated on 2025-03-06 07:22:22.795413 by osmWebWizard.py v1_22_0+0002-63e50f52594
<configuration>
    <net-file value="C:\Users\evans\Sumo\2025-03-06-07-22-14\osm.net.xml.gz"/>
    <output-trip-file value="C:\Users\evans\Sumo\2025-03-06-07-22-14\osm.pedestrian.trips.xml"/>
    <route-file value="C:\Users\evans\Sumo\2025-03-06-07-22-14\osm.pedestrian.rou.xml"/>
    <pedestrians value="True"/>
    <prefix value="ped"/>
    <vehicle-class value="pedestrian"/>
    <fringe-factor value="1"/>
    <max-distance value="2000.0"/>
    <end value="86400.0"/>
    <insertion-density value="10.0"/>
</configuration>
-->

<!-- generated on 2025-03-06 07:22:21 by Eclipse SUMO duarouter Version 1.22.0
<duarouterConfiguration xmlns:xsi="http://www.w3.org/2001/XMLSchema-instance" xsi:noNamespaceSchemaLocation="http://sumo.dlr.de/xsd/duarouterConfiguration.xsd">

    <input>
        <net-file value="C:\Users\evans\Sumo\2025-03-06-07-22-14\osm.net.xml.gz"/>
        <route-files value="C:\Users\evans\Sumo\2025-03-06-07-22-14\osm.pedestrian.trips.xml"/>
    </input>

    <output>
        <output-file value="C:\Users\evans\Sumo\2025-03-06-07-22-14\osm.pedestrian.rou.xml"/>
        <alternatives-output value="NUL"/>
    </output>

    <time>
        <begin value="0.0"/>
        <end value="86400.0"/>
    </time>

    <report>
        <no-warnings value="true"/>
        <ignore-errors value="true"/>
        <no-step-log value="true"/>
    </report>

</duarouterConfiguration>
-->

<routes xmlns:xsi="http://www.w3.org/2001/XMLSchema-instance" xsi:noNamespaceSchemaLocation="http://sumo.dlr.de/xsd/routes_file.xsd">
    <vType id="ped_pedestrian" vClass="pedestrian"/>
    <person id="ped0" type="ped_pedestrian" depart="0.00">
        <walk edges="225485339#1 225485346#0 225485346#1 225485346#2 -183191792#5 -183191792#4 183191792#3 183191792#2 183191792#1 -183191792#0"/>
    </person>
    <person id="ped2" type="ped_pedestrian" depart="23.50">
        <walk edges="335765996 335765998 225486056"/>
    </person>
    <person id="ped4" type="ped_pedestrian" depart="46.99">
        <walk edges="225466107#2 225466107#3 1050574279#1 1050574279#2 1050574279#3 1050574279#4 -543914346#0 183191792#3 -183191792#4 -183191792#5"/>
    </person>
    <person id="ped6" type="ped_pedestrian" depart="70.49">
        <walk edges="-183191792#2 183191792#3 -183191792#4 -183191792#5 225485346#2 225485330#1 225485347#1 225485342 225485361#2 225485350#0 225485350#1 225466097#1 225466097#0 225466135#0 225466135#1 225466123#2 1050574262#1 1050574263 225466090#0 225466090#1 225466083#0 225466083#1 225466094#3 225466094#2 225466122 225466124#8 563602478 -563602666#0 563620263#1 -563620263#0 -563620260"/>
    </person>
    <person id="ped7" type="ped_pedestrian" depart="82.24">
        <walk edges="225485347#1 225485342 225485361#2 225485350#0 225485350#1 225466097#2 225466103 225466137#1 225466137#2 1134398608#1 335765996 335765998 225486056 346382722#1 225446896#0 225446896#1 225466115#3 225470262#0 225470252#1"/>
    </person>
    <person id="ped10" type="ped_pedestrian" depart="117.48">
        <walk edges="543914344#1 1050574279#4 -543914346#0 183191792#3 -183191792#4 -183191792#5 225485346#2 225485330#1 225485347#1 225485342 225485361#2 225485350#0 225485350#1 225466097#2 225466103 225466137#1 225466137#2 225466137#3 225466137#4 1134398595#1 225470267#1 225470267#0 225470243#0 225470240#3 225470240#2 225470240#1 225571730"/>
    </person>
    <person id="ped12" type="ped_pedestrian" depart="140.98">
        <walk edges="585995063#5 225446901 225571223 413506553#1 225466105#0 225466080#2 225466120#0 225466120#1 225466096#1 1050574263 1050574262#1 225466123#2 225466135#1 225466135#0 225466097#0 225466097#1 225485350#1 225485350#0 225485361#2 225485342 225485347#1 225485330#1 225485346#2 -183191792#5 183191792#4"/>
    </person>
    <person id="ped13" type="ped_pedestrian" depart="152.73">
        <walk edges="-440267648#0 440267648#1 -837196485#3 837196490 563602548 -180244632#1 778437842#1 778437844#1 778437844#0 225470244#2 225470244#3 225470244#4 225466128#3 225466118#1 225466118#0 225466102#4 225466102#3 225466100#5 225466100#4 225466100#3 225466100#2 225466100#1 517434099 225485338#0 225485361#0 225485347#2 225485330#1 225485346#2 -183191792#5 -183191792#4 183191792#3 -543914346#0 1050574279#4 1050574279#3 -563602653#1 -543914343#0"/>
    </person>
    <person id="ped15" type="ped_pedestrian" depart="176.23">
        <walk edges="543914346#1 -543914346#0 183191792#3 -183191792#4 -183191792#5 225485346#2 225485330#1 225485347#1 225485342 225485361#2 225485350#0 225485350#1 225466097#1 225466097#0 225466135#0 225466135#1 225466123#2 1050574262#1 1050574263 225466090#0 225466090#1 225466083#0 225466083#1 225466094#3 225466094#2 225466122 225466124#8 563602478 -563602666#0 335765986#8"/>
    </person>
    <person id="ped16" type="ped_pedestrian" depart="187.97">
        <walk edges="225470245#1 225470245#2 225470257 225470244#0 778437843#0 778437843#1 778437842#2"/>
    </person>
    <person id="ped17" type="ped_pedestrian" depart="199.72">
        <walk edges="225466088 225466109 225466124#4 225466124#5 225466124#6 225466124#7 225466124#8 225466124#9 225466124#10 225446893#2 225446893#1 225466115#3 225470262#0 -225470252#3 -225470252#4 372707393 1050574260#0 225470274#1 225470255"/>
    </person>
    <person id="ped23" type="ped_pedestrian" depart="270.21">
        <walk edges="-543914345 183191792#2 183191792#3 -183191792#4 -183191792#5 225485346#2 225485330#1 225485347#1 225485342 225485361#2 225485350#0 225485350#1 225466097#2 225466097#3 225466097#4 225466098#1 225466108 225446900#0 1134398600#3 1134398600#4"/>
    </person>
    <person id="ped24" type="ped_pedestrian" depart="281.96">
        <walk edges="225485336#4 225485336#3 225485336#2 225470234#3 778437851 225470358#0 225571731 225470240#2 225470240#3 225470240#4 225470240#5 346382722#1 225486056 335765998 225466080#0"/>
    </person>
    <person id="ped25" type="ped_pedestrian" depart="293.71">
        <walk edges="225466081#2 225466081#3 225569131 1134398600#1 1134398600#2 1134398602 1134398601#1 225470243#2 1134398594 225470238 225466080#0 225466080#1 225466080#2 225466105#1 225466105#2 225466083#1 225466094#3 225466094#2 225466122 225466124#8 563602478 -563602666#0 -563602475#0 335765986#6 -335765986#5 -335765986#4 -335765986#3 335765986#2 -563620280"/>
    </person>
    <person id="ped29" type="ped_pedestrian" depart="340.70">
        <walk edges="-563602567 -372707395 -225470252#6 -225470252#5 -225470252#4 -225470252#3 225470262#0 225466115#3 225446893#1 225446893#2 225466124#10 225466124#9 225466124#8 225466124#7 225466121#1 225466093#0 225466093#1 225466127#2 225466127#1 225466089"/>
    </person>
    <person id="ped30" type="ped_pedestrian" depart="352.45">
        <walk edges="837196486 -180244632#4 -180244632#3 -180244632#2 -180244632#1 778437842#1 778437844#1 778437844#0 225470244#2 225470244#3 225470244#4 225466128#3 225466118#1 225466118#0 225466102#4 225466102#3 225466100#5 225466100#4 225466100#3 225466100#2 225466100#1 517434099 225485338#0 225485361#0 225485347#2 225485330#0 225485346#0 225485339#1"/>
    </person>
    <person id="ped31" type="ped_pedestrian" depart="364.20">
        <walk edges="225470262#0 225466115#3 225446893#1 225571223"/>
    </person>
    <person id="ped37" type="ped_pedestrian" depart="434.69">
        <walk edges="225485350#2 225466097#2 225466097#3"/>
    </person>
    <person id="ped38" type="ped_pedestrian" depart="446.44">
        <walk edges="563616188#2 -563616188#1 563616187#2 -372396764#6 372396764#5 -372396764#4 372396764#3 372707393 -225470252#5 225470250#1 225470240#0 225470240#1 225470240#2 225470240#3 225470240#4 225470240#5 346382722#1 225486056 335766013#0 335766013#1 225466099#1 225466096#3 225466096#2 225466096#1 225466096#0 225466123#0"/>
    </person>
    <person id="ped39" type="ped_pedestrian" depart="458.19">
        <walk edges="1085025207 -1046388837#1 -372715931#0 -563602516 -563602518 1046388838#1"/>
    </person>
    <person id="ped40" type="ped_pedestrian" depart="469.93">
        <walk edges="225470262#4 225571229 225470240#3 225470243#0 225470267#0 225470267#1 1134398595#1 225466137#4 225466137#3 225466137#2 225466137#1 225466103 225466097#2 225485350#1 225485350#0 225485361#2 225485342 225485347#1 225485330#1 225485346#2 -183191792#5 543914347 -543914346#2 1050574279#5"/>
    </person>
    <person id="ped41" type="ped_pedestrian" depart="481.68">
        <walk edges="225470358#3 225470358#2 225470357#2 778437847 225485323#0 225485323#1 225470359#0 225466110#0 225466110#1 225466110#2 225466110#3 225466110#4 225466108 225466098#1 225466097#4 225466097#3 225466097#2 225485350#1 225485350#0 225485361#2 225485342 225485347#1 225485330#1 225485346#2 -183191792#5 -183191792#4 183191792#3 183191792#2 -543914345 563602653#0"/>
    </person>
    <person id="ped43" type="ped_pedestrian" depart="505.18">
        <walk edges="920874877#3 -920874877#4 372396764#3 1050574260#0 225470274#1 225470274#2 1050574261#1 1050574261#0 225470265#2 225470265#1 225470236#0 225470236#1"/>
    </person>
    <person id="ped45" type="ped_pedestrian" depart="528.68">
        <walk edges="-543921248#2 563602651#1 543821136#0 225466102#6 225466117#0 225485362#0 225485362#1 225466102#1 225446903#1 225446903#0 1134398600#1 1134398600#2 1134398602 1134398601#1 225470243#2 225470243#1 225470243#0 225470240#4 225470240#5 225446896#0 225446896#1 225446893#0 585995063#5 585995063#6 225446891#5 225485335 225485331#1"/>
    </person>
    <person id="ped46" type="ped_pedestrian" depart="540.42">
        <walk edges="440267648#2 -837196485#3 837196490 563602548 -180244632#1 778437842#1 778437844#1 778437844#0 225470244#2 225470244#3 225470244#4 225466128#3 225466118#1 225466118#0 225466102#4 225466102#3 225466100#5 225466100#4 225466100#3 225466100#2 225466100#1 517434099 225485338#0 225485361#0 225485347#2 225485330#1 225485346#2 -183191792#5 -183191792#4 183191792#3 -543914346#0 1050574279#4 1050574279#3 1050574279#2 1050574279#1 225466107#3 225466107#2"/>
    </person>
    <person id="ped47" type="ped_pedestrian" depart="552.17">
        <walk edges="-335765986#5 335765986#6 -563602475#0 -563602666#0 563602478 225466124#8 225466122 225466094#2 225466094#3 225466083#1 225466083#0 225466090#1"/>
    </person>
    <person id="ped48" type="ped_pedestrian" depart="563.92">
        <walk edges="920874877#2 -920874877#3 -920874877#4 372396764#3 372707393 -225470252#5 225470250#1 225470240#0 225470240#1 225470240#2 225470240#3 225470243#0 225470243#1 225470243#2"/>
    </person>
    <person id="ped50" type="ped_pedestrian" depart="587.42">
        <walk edges="-1363617806 -920874877#3 -920874877#4 372396764#3 372707393 -225470252#4 -225470252#3 225470262#0 225466115#3 225446893#1 225446893#2 225466124#10 225466124#9 225466124#8 225466124#7 225466121#1 225466093#0 335765983#1"/>
    </person>
    <person id="ped51" type="ped_pedestrian" depart="599.17">
        <walk edges="225486065#1 225486060 372765901#1 -225477832#1 225485327#1 225485350#2 225466097#2 225466097#3 225466097#4 225466098#1 225466108 225466110#4 225466110#3 225466110#2 225466110#1 225466110#0 225470359#0 225485323#1 225485323#0 778437847 225470357#2 778437849 225470234#1 225470234#0 225470245#1"/>
    </person>
    <person id="ped52" type="ped_pedestrian" depart="610.91">
        <walk edges="1134398595#1 225466137#4 225466137#3 225466137#2 225466134 1134398607 225466098#1 225466098#0 225485340#0"/>
    </person>
    <person id="ped54" type="ped_pedestrian" depart="634.41">
        <walk edges="225466120#0 225466080#2 225466105#0 413506553#1 225571223 225446901 585995063#6 585995063#1"/>
    </person>
    <person id="ped55" type="ped_pedestrian" depart="646.16">
        <walk edges="563602571 563602572#2 -563602576 225486058 225470236#2 225470236#1 225470236#0 225470237 225470276 225485336#4 225470233#0 225470234#0 225470234#1 778437849 225470357#2 778437847 225485323#0 225485323#1 225470359#0 225466110#0 225466110#1 225466110#2 225466110#3 225466110#4 225466108 225466098#1 225466097#4 225466097#3 225466097#2 225485350#1 225485350#0 225485361#2 225485342 225485347#1 225485330#1 225485346#2 -183191792#5 543914347 -543914346#2 1050574279#6"/>
    </person>
    <person id="ped56" type="ped_pedestrian" depart="657.91">
        <walk edges="225466137#5 225466137#4 225466137#3 225466137#2 225466137#1 225466103 225466097#2 225485350#1 225485350#0 225485361#2 225485342 225485347#1 225485330#1 225485346#2 -183191792#5 -183191792#4 183191792#3 183191792#2 -543914345 -563602654"/>
    </person>
    <person id="ped57" type="ped_pedestrian" depart="669.66">
        <walk edges="563616187#2 -372396764#6 372396764#5 -372396764#4 372396764#3 372707393 -225470252#5 225470250#2 225470253#0 225470246#0 225470246#1 225470245#2 225470257 225470244#0 778437843#0 778437843#1 778437842#2 778437842#1 -180244632#1 563602548"/>
    </person>
    <person id="ped58" type="ped_pedestrian" depart="681.40">
        <walk edges="1363617806 -563616188#1 563616187#2 -372396764#6 372396764#5 -372396764#4 372396764#3 372707393 -225470252#5 225470250#1 225470240#0 225470240#1 225470240#2 225470240#3 225470243#0 225470267#0 225470267#1 1134398595#1 225466137#4 225466137#3 225466137#2 225466137#1 225466103 225466097#2 225485350#1 225485350#0 225485361#2 225485342 225485347#1 225485330#0 225485346#0 225485339#0"/>
    </person>
    <person id="ped63" type="ped_pedestrian" depart="740.15">
        <walk edges="-180244632#2 -180244632#1 778437842#1 778437842#2 778437843#1 778437843#0 225470244#0 225470257 225470245#2 225470246#1 225470246#0 225470253#0 225470250#2 -225470252#5 -225470252#4 -225470252#3 225470262#0 225466115#3 225446893#0 585995063#4 585995063#3 585995063#2 585995064#0 225485334 225446891#3 335766015#2 335765986#6 -335765986#5 -335765986#4 -335765986#3 563620278"/>
    </person>
    <person id="ped65" type="ped_pedestrian" depart="763.64">
        <walk edges="180244632#2 -180244632#1 778437842#1 778437842#2 778437843#1 778437843#0 225470244#0 225470257 225470245#2 225470246#1 225470246#0 225470253#0 225470250#2 -225470252#5 -225470252#4 -225470252#3 225470262#0 225466115#3 225446893#0 585995063#4 585995063#3 585995063#2 585995064#0 225485334 225446891#3 335766015#2 335765986#6 -335765986#5 -335765986#4 -335765986#3 335765986#2 -335765986#1 -335765986#0"/>
    </person>
    <person id="ped66" type="ped_pedestrian" depart="775.39">
        <walk edges="563602572#2 -563602576 225486058 225470236#2 225470236#1 225470236#0 225470265#1 225470265#2 1050574261#0 1050574261#1 225470274#2 225470274#1 1050574260#0 372396764#3 -372396764#4 372396764#5 -372396764#6 563616187#2 -563616188#1 -563616188#2 -563616188#3 -372398472 565245611#1"/>
    </person>
    <person id="ped68" type="ped_pedestrian" depart="798.89">
        <walk edges="-372396764#0 -225470252#4 372707394"/>
    </person>
    <person id="ped69" type="ped_pedestrian" depart="810.64">
        <walk edges="372725969 -225477832#1 225485327#1 225485350#2 225466097#2 225466097#3 225466097#4 225466098#1 225466108 225446900#0 1134398600#3 1134398600#4 225569126 225446899#0 225466079 225466128#2 225466128#3 225470244#4 225470244#3 225470244#2 778437844#0 778437844#1 778437842#1 -180244632#1 563602548 837196490 -837196485#3 440267648#1 -440267648#0 -563602456 563602469 -563602462#0"/>
    </person>
    <person id="ped70" type="ped_pedestrian" depart="822.38">
        <walk edges="225466125 225466112#2 585995064#1 585995064#0 585995063#2 585995063#3 585995063#4 225446893#0 225466115#3 225470262#0 -225470252#3 -225470252#4 -225470252#5 225470252#6"/>
    </person>
    <person id="ped72" type="ped_pedestrian" depart="845.88">
        <walk edges="225466107#3 1050574279#1 1050574279#2 1050574279#3 1050574279#4 -543914346#0 183191792#3 -183191792#4 -183191792#5 225485346#2 225485330#1 225485347#1 225485342 225485361#2 225485350#0 225485350#1 225466097#1 225466097#0 225466135#0 225466135#1 225466123#2 1050574262#1 1050574263 225466090#0 225466090#1 225466083#0 225466083#1 225466094#3 225466094#2 225466122 225466124#8 563602478 -563602666#0 -563602475#0 335765986#6 -335765986#5 -335765986#4 563620276 -563620281#1"/>
    </person>
    <person id="ped73" type="ped_pedestrian" depart="857.63">
        <walk edges="225470245#3 225470245#2 225470246#1 225470246#0 225470253#0 225470250#2 -225470252#5 -225470252#4 -225470252#3 225470262#0 225466115#3 225446893#0 585995063#4 585995063#3 585995063#2 585995064#0 225485334 225446891#3 335766015#2 335765986#8"/>
    </person>
    <person id="ped75" type="ped_pedestrian" depart="881.13">
        <walk edges="920874877#1 -920874877#2 -920874877#3 -920874877#4 372396764#3 372707393 -225470252#5 225470250#1 225470240#0 225470240#1 225470240#2 225470240#3 225470243#0 225470267#0 225470267#1 1134398595#1 225466137#4 225466137#3 225466137#2 225466137#1 225466103 225466097#2 225485350#1 225485350#0 225485361#2 225485342 225485347#1"/>
    </person>
    <person id="ped76" type="ped_pedestrian" depart="892.87">
        <walk edges="225466112#2 585995064#1 585995064#0 585995063#2 585995063#3 585995063#4 225446893#0 225446896#1 225446896#0 225470240#5 225470240#4 225470243#0 225470267#0 225470238"/>
    </person>
    <person id="ped78" type="ped_pedestrian" depart="916.37">
        <walk edges="183191792#6 225485346#2 225485330#1 225485347#1 225485342 225485361#2 225485350#0 225485350#1 225466097#2 225466097#3 225466097#4 225466098#1 225466108 225466110#4 225466110#3 225466110#2 225466110#1 225466110#0 225470359#0 225470359#1 225470359#2"/>
    </person>
    <person id="ped80" type="ped_pedestrian" depart="939.87">
        <walk edges="-372396764#4 372396764#3 372707393 -225470252#4 -225470252#3 225470262#0 225466115#3 225446893#0 585995063#5 585995063#6 225446891#5 225485335"/>
    </person>
    <person id="ped87" type="ped_pedestrian" depart="1022.11">
        <walk edges="543914346#1 -543914346#0 183191792#3 -183191792#4 -183191792#5 183191792#6 -183191745#0 183191774#0 372765901#4 372765901#3 372765901#2 372765901#1 372765901#0 225466111#3 -563602683#0"/>
    </person>
    <person id="ped88" type="ped_pedestrian" depart="1033.85">
        <walk edges="-543914343#0 -563602653#1 1050574279#3 1050574279#4 -543914346#0 183191792#3 -183191792#4 -183191792#5 225485346#2 225485330#1 225485347#1 225485342 225485361#2 225485350#0 225485350#1 225466097#2 225466097#3 225466097#4 225466098#1 225466108 225466110#4"/>
    </person>
    <person id="ped89" type="ped_pedestrian" depart="1045.60">
        <walk edges="225466107#3 1050574279#1 1050574279#2 1050574279#3 1050574279#4 -543914346#0 183191792#3 -183191792#4 -183191792#5 183191792#6 -183191745#0 183191774#0 372765901#4 372765901#3 372765901#2 372765901#1 372765901#0 225466111#3 225466111#2 225466111#1 225466111#0 225466124#2 225466124#3"/>
    </person>
    <person id="ped90" type="ped_pedestrian" depart="1057.35">
        <walk edges="335765986#6 -563602475#0 -563602666#0 563602478 225466124#8 225466122 225466094#2 225466094#3 225466083#1 225466105#2 225466105#1 225466080#2 225466080#1 225466080#0 225470238 1134398594 225470243#2 1134398601#1 1134398602 1134398600#2 1134398600#1 225446903#0 225446903#1 225466102#1 225485362#1"/>
    </person>
    <person id="ped91" type="ped_pedestrian" depart="1069.10">
        <walk edges="837196483 -180244632#4 -180244632#3 -180244632#2 -180244632#1 778437842#1 778437844#1 778437844#0 225470244#2 225470244#3 225470244#4 225466128#3 225466118#1 225466118#0 225466102#4 225466102#3 225466100#5 225466100#4 225466100#3 225466100#2 225466100#1 517434099 225485338#0 225485361#0 225485347#2 225485330#1 225485346#2 -183191792#5 -183191792#4 183191792#3 -543914346#0 1050574279#4 1050574279#3 1050574279#2 -543914343#1"/>
    </person>
    <person id="ped92" type="ped_pedestrian" depart="1080.85">
        <walk edges="225466100#0 225466100#1 225466100#2 225485325#0 1134398604 225466097#4 1134398607 225466134 225466137#2 1134398608#1 335765996 335765998 225486056 346382722#1 225446896#0 225446890"/>
    </person>
    <person id="ped93" type="ped_pedestrian" depart="1092.60">
        <walk edges="563602528#0 1046388838#2"/>
    </person>
    <person id="ped94" type="ped_pedestrian" depart="1104.34">
        <walk edges="-563602683#0 225466111#3 372765901#0 372765901#1 372765901#2 225485361#5 225485361#4 225485361#3 225485361#2 225485361#1 225485361#0 225485338#0 517434099 225466100#0 225466117#3 225466117#2"/>
    </person>
    <person id="ped95" type="ped_pedestrian" depart="1116.09">
        <walk edges="225466107#2 225466107#3 1050574279#1 1050574279#2 1050574279#3 1050574279#4 -543914346#0 183191792#3 -183191792#4 -183191792#5 225485346#2 225485330#1 225485347#1 225485342 225485361#2 225485350#0 225485350#1 225466097#2 225466097#3 225466097#4 225466098#1 225466108 225466110#4 1134398601#1"/>
    </person>
    <person id="ped96" type="ped_pedestrian" depart="1127.84">
        <walk edges="1050574260#1 372707393 -225470252#4 -225470252#3 225470262#0 225466115#3 225446893#0 585995063#4 585995063#3 585995063#2 585995064#0 225485334 225446891#3 335766015#2 335765986#6 -335765986#5 563620264"/>
    </person>
    <person id="ped99" type="ped_pedestrian" depart="1163.09">
        <walk edges="928756321 225466107#3 1050574279#1 1050574279#2 1050574279#3 1050574279#4 -543914346#0 183191792#3 -183191792#4 -183191792#5 225485346#2 225485330#1 225485347#2 225485361#0 225485338#0 517434099 225466100#1 225466100#2 225466100#3 225466100#4 225466100#5 225466102#3 225466102#4 225466118#0 225466118#1 225466128#3 225470244#4 225470244#3 225470244#2 778437844#0 778437844#1 778437842#1 -180244632#1 563602548 837196490 -837196485#3 440267648#1 -440267648#0 -563602456 563602469 -563602462#0 563602462#1"/>
    </person>
    <person id="ped100" type="ped_pedestrian" depart="1174.83">
        <walk edges="586096395 -225470252#6 -225470252#5 -225470252#4 -225470252#3 225470262#0 225466115#3 225446893#0 585995063#4 585995063#3 585995063#2 585995064#0 225485334 225446891#3 335766015#2 563620270#1"/>
    </person>
    <person id="ped103" type="ped_pedestrian" depart="1210.08">
        <walk edges="225466099#2 225466096#3 225466129#1 225466129#0 225466083#0 225466083#1 225466094#3 225466094#2 225466122 225466124#8 563602478 -563602666#0 -563602475#0 335765986#6 -335765986#5 -335765986#4 -335765986#3 335765986#2 -335765986#1 -335765986#0"/>
    </person>
    <person id="ped104" type="ped_pedestrian" depart="1221.83">
        <walk edges="225466089 225466127#1 225466127#2 225466093#1 225466093#0 225466121#1 225466124#7 225466124#8 225466124#9 225466124#10 225446893#2 225446893#1 225466115#3 225470262#0 -225470252#3 -225470252#4 -225470252#5 225470250#2 225470253#0 225470246#0 225470246#1 225470245#2 225470257 225470244#0 778437843#0 778437843#1 778437842#2 778437842#1 -180244632#1 -180244632#2 -180244632#3 -180244632#4 837196483 837196484"/>
    </person>
    <person id="ped105" type="ped_pedestrian" depart="1233.58">
        <walk edges="1085025207 372715929 -276157215#0 276157217 -276157217 276157215#0 -415361889#0 415361890#1"/>
    </person>
    <person id="ped106" type="ped_pedestrian" depart="1245.32">
        <walk edges="225466120#1 225466096#1 1050574263 1050574262#1 225466123#2 225466135#1 225466135#0 225466097#0 225466097#1 225485350#1 225485350#0 225485361#2 225485342 225485347#1 225485330#1 225485346#2 -183191792#5 -183191792#4 183191792#3 -543914346#0 1050574279#4 1050574279#3 1050574279#2 1050574279#1 225466107#3"/>
    </person>
    <person id="ped107" type="ped_pedestrian" depart="1257.07">
        <walk edges="585995063#5 225446893#0 225466115#3 225470262#0 -225470252#3 -225470252#4 372707393 372396764#3 -920874877#4 -920874877#3 -920874877#2 920874877#1"/>
    </person>
    <person id="ped110" type="ped_pedestrian" depart="1292.32">
        <walk edges="586096395 -225470252#6 225470250#2 225470253#0 225470246#0 225470276"/>
    </person>
    <person id="ped111" type="ped_pedestrian" depart="1304.07">
        <walk edges="225470250#0 225470262#2 225470262#1 225470262#0 225466115#3 225446893#0 585995063#4 585995063#3 585995063#2 585995064#0 225485334 225446891#3 335766015#2 335765986#6 -335765986#5 -335765986#4 -335765986#3 -563620277 335766023#1"/>
    </person>
    <person id="ped112" type="ped_pedestrian" depart="1315.81">
        <walk edges="-335765983#1 225466093#0 225466121#1 225466124#6 225466083#2 225466083#1 225466105#2 225466105#1 225466105#0 346382722#0 346382722#1 225470240#5 225470240#4 225470240#3 225470240#2 225571731 225470358#0 225470358#1 225470358#2"/>
    </person>
    <person id="ped114" type="ped_pedestrian" depart="1339.31">
        <walk edges="-563602533#0 225470244#2 225470244#1 225470244#0 225470257 225470245#2 225470246#1 225470246#0 225470253#0 225470250#2 -225470252#5 -225470252#4 -225470252#3 225470262#0 225466115#3 225446893#0 585995063#4 585995063#3 585995063#2 585995064#0 585995064#1"/>
    </person>
    <person id="ped120" type="ped_pedestrian" depart="1409.80">
        <walk edges="225466105#2 225466105#1 225466105#0 346382722#0 346382722#1 225470240#5 225470240#4 225470240#3 225470240#2 225571731 225470358#0 225470358#1 225470358#2"/>
    </person>
    <person id="ped123" type="ped_pedestrian" depart="1445.05">
        <walk edges="-920874877#0 -920874877#1 -920874877#2 -920874877#3 -920874877#4 372396764#3 372707393 -225470252#5 225470250#1 225470240#0 225470240#1 225470240#2 225470240#3 225470243#0 225470267#0 225470267#1 1134398595#1 225466137#4 225466137#3 225466137#2 225466137#1 225466103 225466097#3"/>
    </person>
    <person id="ped124" type="ped_pedestrian" depart="1456.79">
        <walk edges="225485362#0 225485362#1 225466102#1 225446903#1 225446903#0 1134398600#1 1134398600#2 1134398602 1134398601#1 225470243#2 225470243#1 225470243#0 225470240#3 225470240#2 225470240#1 225470240#0 225470250#1 -225470252#5 372707393 372396764#3 -372396764#4 372396764#5 -372396764#6 563616187#2 -563616188#1 -563616188#2 1363617807"/>
    </person>
    <person id="ped126" type="ped_pedestrian" depart="1480.29">
        <walk edges="-372396764#6 372396764#5 -372396764#4 372396764#3 372707393 -225470252#4 -225470252#3 225470262#0 225466115#3 225446893#1 225446893#2 225466124#10 225466124#9 225466124#8 225466122"/>
    </person>
    <person id="ped127" type="ped_pedestrian" depart="1492.04">
        <walk edges="920874877#4 -920874877#3 920874877#2"/>
    </person>
    <person id="ped130" type="ped_pedestrian" depart="1527.29">
        <walk edges="563602575#2 563602575#1 563602575#0"/>
    </person>
    <person id="ped131" type="ped_pedestrian" depart="1539.03">
        <walk edges="225466081#2 543821137 225446903#1 225466116 225446899#0 225466079 225466128#2 225466128#3 225470244#4 225470244#3 -563602533#0"/>
    </person>
    <person id="ped133" type="ped_pedestrian" depart="1562.53">
        <walk edges="225476497#0 225476493#0 225571226 225466111#2 225466111#3 372765901#0 372765901#1 -225477832#1 225485327#1 225485350#2 225466097#2 225466097#3 225466097#4 225466098#1 225466108 225446900#0 1134398600#3 1134398600#4 225569126 225446899#0 225466079 225466128#2 225466128#3 225470244#4 225470244#3 225470244#2 778437844#0 778437844#1 778437842#1 -180244632#1 -180244632#2 -180244632#3 -180244632#4 837196486 837196485#1"/>
    </person>
    <person id="ped134" type="ped_pedestrian" depart="1574.28">
        <walk edges="225485350#1 225485350#0 225485361#2 225485361#1 225485361#0 225485338#0 517434099 225466100#0 225466117#3 -1134398611"/>
    </person>
    <person id="ped138" type="ped_pedestrian" depart="1621.27">
        <walk edges="-543921248#0 -543921248#1 -543921248#2 563602651#1 543821136#0 225466102#5 225466118#0 225466118#1 225466128#2 225466079 225446899#1 225446899#2 225470357#1 225470357#2 778437849 225470234#1 225470234#0 225470245#1 225470245#2 225470257"/>
    </person>
    <person id="ped139" type="ped_pedestrian" depart="1633.02">
        <walk edges="1134398599 225466081#2 225466081#3 225569131 1134398600#1 1134398600#2 225446900#0 225466108 225466098#1 225466097#4 225466097#3 225466097#2 225485350#2 225485327#1 -225477832#1 372765901#1 372765901#0 225466111#3 225466111#2 225571233#1 225476492#3"/>
    </person>
    <person id="ped141" type="ped_pedestrian" depart="1656.52">
        <walk edges="225485336#3 225485336#2 225470234#3 778437851 225470358#0 225470359#2 225470359#1 225470359#0 225466110#0 225466110#1 225466110#2 225466110#3 225466110#4 225466108 225466098#1 225466097#4 225466097#3 225466097#2 225485350#1 225485350#0 225485361#2 225485342 225485347#1 225485330#1 225485346#2 -183191792#5 543914347 -543914346#2 1050574279#6"/>
    </person>
    <person id="ped144" type="ped_pedestrian" depart="1691.76">
        <walk edges="225466107#3 1050574279#1 1050574279#2 1050574279#3 1050574279#4 -543914346#0 183191792#3 -183191792#4 -183191792#5 225485346#2 225485330#1 225485347#1 225485342 225485361#2 225485350#0 225485350#1 225466097#2 225466097#3 225466097#4 225466098#1 225466108 225446900#0 1134398600#3"/>
    </person>
    <person id="ped146" type="ped_pedestrian" depart="1715.26">
        <walk edges="225485338#1 225485361#0 225485347#2 225485330#1 225485346#2 -183191792#5 -183191792#4 183191792#3 -543914346#0 1050574279#4"/>
    </person>
    <person id="ped147" type="ped_pedestrian" depart="1727.01">
        <walk edges="335766013#0 225486056 346382722#1 225470240#5 225470240#4 225470240#3 225470240#2 225571731 225470358#0 778437851 225470234#3 225485336#2 225470242#0 225470253#1"/>
    </person>
    <person id="ped148" type="ped_pedestrian" depart="1738.76">
        <walk edges="225466110#1 225466110#0 225470359#0 225470359#1 225470359#2 225470358#0 778437851 225470264#0 225470264#1 225470250#2 -225470252#5 372707393 372396764#3 -920874877#4 -1363617805"/>
    </person>