<?xml version="1.0" encoding="UTF-8"?>

<!-- generated on 2025-03-06 07:22:19.679411 by osmWebWizard.py v1_22_0+0002-63e50f52594
<configuration>
    <net-file value="C:\Users\evans\Sumo\2025-03-06-07-22-14\osm.net.xml.gz"/>
    <output-trip-file value="C:\Users\evans\Sumo\2025-03-06-07-22-14\osm.bicycle.trips.xml"/>
    <route-file value="C:\Users\evans\Sumo\2025-03-06-07-22-14\osm.bicycle.rou.xml"/>
    <prefix value="bike"/>
    <trip-attributes value="departLane=&quot;best&quot;"/>
    <fringe-start-attributes value="departSpeed=&quot;max&quot;"/>
    <vehicle-class value="bicycle"/>
    <fringe-factor value="2"/>
    <vclass value="bicycle"/>
    <via-edge-types value="highway.motorway,highway.motorway_link,highway.trunk_link,highway.primary_link,highway.secondary_link,highway.tertiary_link"/>
    <max-distance value="8000.0"/>
    <remove-loops value="True"/>
    <validate value="True"/>
    <end value="86400.0"/>
    <insertion-density value="6.0"/>
</configuration>
-->

<!-- generated on 2025-03-06 07:22:19 by Eclipse SUMO duarouter Version 1.22.0
<duarouterConfiguration xmlns:xsi="http://www.w3.org/2001/XMLSchema-instance" xsi:noNamespaceSchemaLocation="http://sumo.dlr.de/xsd/duarouterConfiguration.xsd">

    <input>
        <net-file value="C:\Users\evans\Sumo\2025-03-06-07-22-14\osm.net.xml.gz"/>
        <route-files value="C:\Users\evans\Sumo\2025-03-06-07-22-14\osm.bicycle.trips.xml"/>
    </input>

    <output>
        <output-file value="C:\Users\evans\Sumo\2025-03-06-07-22-14\osm.bicycle.trips.xml.tmp"/>
        <alternatives-output value="NUL"/>
        <write-trips value="true"/>
    </output>

    <processing>
        <remove-loops value="true"/>
    </processing>

    <time>
        <begin value="0.0"/>
        <end value="86400.0"/>
    </time>

    <report>
        <no-warnings value="true"/>
        <ignore-errors value="true"/>
        <no-step-log value="true"/>
    </report>

</duarouterConfiguration>
-->

<routes xmlns:xsi="http://www.w3.org/2001/XMLSchema-instance" xsi:noNamespaceSchemaLocation="http://sumo.dlr.de/xsd/routes_file.xsd">
    <vType id="bike_bicycle" vClass="bicycle"/>
    <trip id="bike0" type="bike_bicycle" depart="0.00" departLane="best" from="415361886#2" to="-180244626#3"/>
    <trip id="bike1" type="bike_bicycle" depart="22.99" departLane="best" from="-563602516" to="-563602496#0"/>
    <trip id="bike2" type="bike_bicycle" depart="45.98" departLane="best" from="563602507#0" to="563602456"/>
    <trip id="bike4" type="bike_bicycle" depart="91.97" departLane="best" from="180244628" to="180244632#3"/>
    <trip id="bike9" type="bike_bicycle" depart="206.93" departLane="best" from="-335765983#0" to="-1046388838#0"/>
    <trip id="bike10" type="bike_bicycle" depart="229.92" departLane="best" from="563602665#1" to="563602484"/>
    <trip id="bike11" type="bike_bicycle" depart="252.91" departLane="best" from="-563602655" to="-440267646"/>
    <trip id="bike12" type="bike_bicycle" depart="275.91" departLane="best" from="586413266#1" to="-585997479"/>
    <trip id="bike14" type="bike_bicycle" depart="321.89" departLane="best" from="563620278" to="415361888"/>
    <trip id="bike15" type="bike_bicycle" depart="344.88" departLane="best" from="563602665#1" to="-563602526#1"/>
    <trip id="bike16" type="bike_bicycle" depart="367.88" departLane="best" from="-180244637#1" to="837196486"/>
    <trip id="bike17" type="bike_bicycle" depart="390.87" departLane="best" from="-563620260" to="-335765986#0"/>
    <trip id="bike22" type="bike_bicycle" depart="505.83" departLane="best" from="-225470252#6" to="-563602507#1"/>
    <trip id="bike24" type="bike_bicycle" depart="551.81" departLane="best" from="415361885" to="586413246#4"/>
    <trip id="bike26" type="bike_bicycle" depart="597.80" departLane="best" from="-563602505#0" to="586413246#5"/>
    <trip id="bike27" type="bike_bicycle" depart="620.79" departLane="best" from="415361890#1" to="415361890#1"/>
    <trip id="bike28" type="bike_bicycle" depart="643.78" departLane="best" from="-415361892#1" to="563602526#1"/>
    <trip id="bike29" type="bike_bicycle" depart="666.77" departLane="best" from="-415361886#1" to="-837196485#0"/>
    <trip id="bike30" type="bike_bicycle" depart="689.77" departLane="best" from="-9151585#6" to="543914347"/>
    <trip id="bike31" type="bike_bicycle" depart="712.76" departLane="best" from="-183191792#2" to="563602462#1"/>
    <trip id="bike32" type="bike_bicycle" depart="735.75" departLane="best" from="563620270#1" to="563602638"/>
    <trip id="bike34" type="bike_bicycle" depart="781.73" departLane="best" from="-563602576" to="-563602653#0"/>
    <trip id="bike36" type="bike_bicycle" depart="827.72" departLane="best" from="565255792#3" to="-563620281#0"/>
    <trip id="bike37" type="bike_bicycle" depart="850.71" departLane="best" from="415361892#1" to="9151585#1"/>
    <trip id="bike38" type="bike_bicycle" depart="873.70" departLane="best" from="586413246#0" to="-180244636#4"/>
    <trip id="bike39" type="bike_bicycle" depart="896.70" departLane="best" departSpeed="max" from="-563602502" to="563602524"/>
    <trip id="bike40" type="bike_bicycle" depart="919.69" departLane="best" from="-183191792#5" to="563602647"/>
    <trip id="bike41" type="bike_bicycle" depart="942.68" departLane="best" from="276157215#1" to="585994313"/>
    <trip id="bike42" type="bike_bicycle" depart="965.67" departLane="best" from="-563620281#1" to="-563602489#0"/>
    <trip id="bike43" type="bike_bicycle" depart="988.66" departLane="best" from="920874877#3" to="225485355"/>
    <trip id="bike45" type="bike_bicycle" depart="1034.65" departLane="best" from="-276157215#4" to="543914343#2"/>
    <trip id="bike46" type="bike_bicycle" depart="1057.64" departLane="best" from="-563602647" to="-1085025207"/>
    <trip id="bike47" type="bike_bicycle" depart="1080.63" departLane="best" from="-183191792#1" to="-837196485#1"/>
    <trip id="bike48" type="bike_bicycle" depart="1103.63" departLane="best" from="920874877#2" to="276157215#0"/>
    <trip id="bike49" type="bike_bicycle" depart="1126.62" departLane="best" from="837196485#2" to="563620286"/>
    <trip id="bike50" type="bike_bicycle" depart="1149.61" departLane="best" from="-1085025207" to="563602518"/>
    <trip id="bike51" type="bike_bicycle" depart="1172.60" departLane="best" from="543914346#1" to="276157215#4"/>
    <trip id="bike52" type="bike_bicycle" depart="1195.59" departLane="best" from="-563602505#0" to="543914349#1"/>
    <trip id="bike53" type="bike_bicycle" depart="1218.59" departLane="best" from="-276157215#5" to="1363617808"/>
    <trip id="bike54" type="bike_bicycle" depart="1241.58" departLane="best" from="586413254#1" to="586413259#3"/>
    <trip id="bike55" type="bike_bicycle" depart="1264.57" departLane="best" from="565255792#3" to="563602647"/>
    <trip id="bike56" type="bike_bicycle" depart="1287.56" departLane="best" from="1363617804" to="-543914346#2"/>
    <trip id="bike57" type="bike_bicycle" depart="1310.56" departLane="best" from="586096395" to="565245609#0"/>
    <trip id="bike58" type="bike_bicycle" depart="1333.55" departLane="best" departSpeed="max" from="-563602541" to="-563602657"/>
    <trip id="bike59" type="bike_bicycle" depart="1356.54" departLane="best" from="-563602475#0" to="-415361892#1"/>
    <trip id="bike60" type="bike_bicycle" depart="1379.53" departLane="best" from="563602543" to="276157215#6"/>
    <trip id="bike61" type="bike_bicycle" depart="1402.52" departLane="best" from="563602575#2" to="276157215#0"/>
    <trip id="bike63" type="bike_bicycle" depart="1448.51" departLane="best" from="-1363617806" to="586413246#18"/>
    <trip id="bike64" type="bike_bicycle" depart="1471.50" departLane="best" from="565255792#4" to="563616188#4"/>
    <trip id="bike65" type="bike_bicycle" depart="1494.49" departLane="best" departSpeed="max" from="-563602567" to="183191792#2"/>
    <trip id="bike66" type="bike_bicycle" depart="1517.48" departLane="best" from="565255792#4" to="586002131#0"/>
    <trip id="bike68" type="bike_bicycle" depart="1563.47" departLane="best" from="-183191792#4" to="563602571"/>
    <trip id="bike69" type="bike_bicycle" depart="1586.46" departLane="best" from="563602569#2" to="-372715927#0"/>
    <trip id="bike70" type="bike_bicycle" depart="1609.45" departLane="best" from="-9151585#4" to="335765983#2"/>
    <trip id="bike71" type="bike_bicycle" depart="1632.45" departLane="best" departSpeed="max" from="-563602502" to="586002131#1"/>
    <trip id="bike72" type="bike_bicycle" depart="1655.44" departLane="best" from="180244628" to="563602456"/>
    <trip id="bike73" type="bike_bicycle" depart="1678.43" departLane="best" departSpeed="max" from="180244639#0" to="-563602526#1"/>
    <trip id="bike74" type="bike_bicycle" depart="1701.42" departLane="best" from="543921248#2" to="-563620277"/>
    <trip id="bike77" type="bike_bicycle" depart="1770.40" departLane="best" from="-335765983#0" to="-563602500"/>
    <trip id="bike78" type="bike_bicycle" depart="1793.39" departLane="best" from="563602653#1" to="372715931#0"/>
    <trip id="bike80" type="bike_bicycle" depart="1839.38" departLane="best" from="-183191792#5" to="-543914344#1"/>
    <trip id="bike82" type="bike_bicycle" depart="1885.36" departLane="best" from="-563620287#1" to="225470252#5"/>
    <trip id="bike85" type="bike_bicycle" depart="1954.34" departLane="best" from="-586413246#5" to="372396764#3"/>
    <trip id="bike86" type="bike_bicycle" depart="1977.33" departLane="best" from="9151585#1" to="563602644"/>
    <trip id="bike89" type="bike_bicycle" depart="2046.31" departLane="best" from="-563602533#0" to="180244639#1"/>
    <trip id="bike91" type="bike_bicycle" depart="2092.29" departLane="best" from="-563602505#0" to="335765986#1"/>
    <trip id="bike92" type="bike_bicycle" depart="2115.28" departLane="best" from="-563620286" to="-586080836#0"/>
    <trip id="bike94" type="bike_bicycle" depart="2161.27" departLane="best" from="-543914346#0" to="180244632#2"/>
    <trip id="bike95" type="bike_bicycle" depart="2184.26" departLane="best" from="180244628" to="-563602667"/>
    <trip id="bike96" type="bike_bicycle" depart="2207.25" departLane="best" from="335765986#8" to="-586413246#14"/>
    <trip id="bike97" type="bike_bicycle" depart="2230.24" departLane="best" from="-586413246#3" to="-563620287#0"/>
    <trip id="bike98" type="bike_bicycle" depart="2253.24" departLane="best" from="183191745#1" to="-180244639#0"/>
    <trip id="bike99" type="bike_bicycle" depart="2276.23" departLane="best" from="920874877#4" to="563620261"/>
    <trip id="bike100" type="bike_bicycle" depart="2299.22" departLane="best" from="837196485#1" to="586413246#16"/>
    <trip id="bike101" type="bike_bicycle" depart="2322.21" departLane="best" from="563620281#0" to="-543914343#0"/>
    <trip id="bike102" type="bike_bicycle" depart="2345.20" departLane="best" from="-920874877#2" to="335765986#8"/>
    <trip id="bike103" type="bike_bicycle" depart="2368.20" departLane="best" from="-563620286" to="-183191792#2"/>
    <trip id="bike104" type="bike_bicycle" depart="2391.19" departLane="best" from="-563620260" to="9151585#4"/>
    <trip id="bike105" type="bike_bicycle" depart="2414.18" departLane="best" departSpeed="max" from="-563602502" to="563602644"/>
    <trip id="bike106" type="bike_bicycle" depart="2437.17" departLane="best" from="-586413249#1" to="1085025207"/>
    <trip id="bike107" type="bike_bicycle" depart="2460.17" departLane="best" from="586413266#1" to="-920874877#2"/>
    <trip id="bike108" type="bike_bicycle" depart="2483.16" departLane="best" from="183191792#1" to="563602514"/>
    <trip id="bike109" type="bike_bicycle" depart="2506.15" departLane="best" from="-372715931#0" to="-563620262"/>
    <trip id="bike110" type="bike_bicycle" depart="2529.14" departLane="best" from="837196485#1" to="372707393"/>
    <trip id="bike111" type="bike_bicycle" depart="2552.13" departLane="best" from="586413263#1" to="563602548"/>
    <trip id="bike112" type="bike_bicycle" depart="2575.13" departLane="best" departSpeed="max" from="-180244652" to="372707397#1"/>
    <trip id="bike113" type="bike_bicycle" depart="2598.12" departLane="best" from="1363617805" to="-563620281#0"/>
    <trip id="bike114" type="bike_bicycle" depart="2621.11" departLane="best" from="-372715931#1" to="586413266#3"/>
    <trip id="bike115" type="bike_bicycle" depart="2644.10" departLane="best" from="-225477832#1" to="-543921248#1"/>
    <trip id="bike117" type="bike_bicycle" depart="2690.09" departLane="best" from="-563602456" to="372396764#5"/>
    <trip id="bike119" type="bike_bicycle" depart="2736.07" departLane="best" from="335765983#1" to="440267648#2"/>
    <trip id="bike120" type="bike_bicycle" depart="2759.06" departLane="best" from="180244626#4" to="372707397#1"/>
    <trip id="bike121" type="bike_bicycle" depart="2782.06" departLane="best" departSpeed="max" from="180244636#0" to="-586413246#4"/>
    <trip id="bike123" type="bike_bicycle" depart="2828.04" departLane="best" departSpeed="max" from="-563602463" to="9151585#1"/>
    <trip id="bike124" type="bike_bicycle" depart="2851.03" departLane="best" from="543914343#0" to="-563620263#0"/>
    <trip id="bike125" type="bike_bicycle" depart="2874.02" departLane="best" from="-563602576" to="563602560#1"/>
    <trip id="bike126" type="bike_bicycle" depart="2897.02" departLane="best" from="-225470252#1" to="-180244636#4"/>
    <trip id="bike127" type="bike_bicycle" depart="2920.01" departLane="best" from="-920874877#4" to="-920874877#2"/>
    <trip id="bike128" type="bike_bicycle" depart="2943.00" departLane="best" from="-225470252#3" to="563602462#0"/>
    <trip id="bike129" type="bike_bicycle" depart="2965.99" departLane="best" departSpeed="max" from="-563602502" to="586413246#3"/>
    <trip id="bike130" type="bike_bicycle" depart="2988.99" departLane="best" from="565255792#5" to="565255792#0"/>
    <trip id="bike131" type="bike_bicycle" depart="3011.98" departLane="best" from="-563616188#0" to="-440267648#0"/>
    <trip id="bike132" type="bike_bicycle" depart="3034.97" departLane="best" from="563620263#0" to="563602496#0"/>
    <trip id="bike133" type="bike_bicycle" depart="3057.96" departLane="best" from="335766023#1" to="9151585#5"/>
    <trip id="bike134" type="bike_bicycle" depart="3080.95" departLane="best" departSpeed="max" from="415361892#0" to="-1046388838#1"/>
    <trip id="bike135" type="bike_bicycle" depart="3103.95" departLane="best" from="563602689" to="-563620263#0"/>
    <trip id="bike136" type="bike_bicycle" depart="3126.94" departLane="best" from="-372376369#0" to="586413246#6"/>
    <trip id="bike137" type="bike_bicycle" depart="3149.93" departLane="best" from="-335765986#5" to="-372396764#3"/>
    <trip id="bike138" type="bike_bicycle" depart="3172.92" departLane="best" from="-276157215#2" to="335765986#1"/>
    <trip id="bike139" type="bike_bicycle" depart="3195.92" departLane="best" from="1046388838#1" to="415361888"/>
    <trip id="bike141" type="bike_bicycle" depart="3241.90" departLane="best" from="415361884" to="563602647"/>
    <trip id="bike142" type="bike_bicycle" depart="3264.89" departLane="best" from="920874877#4" to="586002131#1"/>
    <trip id="bike143" type="bike_bicycle" depart="3287.88" departLane="best" from="563620276" to="-276157217"/>
    <trip id="bike144" type="bike_bicycle" depart="3310.88" departLane="best" from="-586413246#0" to="563602475#1"/>
    <trip id="bike145" type="bike_bicycle" depart="3333.87" departLane="best" from="-1046388837#1" to="563602575#3"/>
    <trip id="bike146" type="bike_bicycle" depart="3356.86" departLane="best" from="415361886#1" to="563602642#1"/>
    <trip id="bike147" type="bike_bicycle" depart="3379.85" departLane="best" from="563602514" to="-335765986#0"/>
    <trip id="bike148" type="bike_bicycle" depart="3402.85" departLane="best" from="-586413246#11" to="1046388838#2"/>
    <trip id="bike149" type="bike_bicycle" depart="3425.84" departLane="best" from="-225470252#4" to="586413259#0"/>
    <trip id="bike151" type="bike_bicycle" depart="3471.82" departLane="best" from="563620263#0" to="372707394"/>
    <trip id="bike152" type="bike_bicycle" depart="3494.81" departLane="best" from="-372396764#6" to="-372715927#0"/>
    <trip id="bike153" type="bike_bicycle" depart="3517.81" departLane="best" departSpeed="max" from="-563602567" to="585994313"/>
    <trip id="bike154" type="bike_bicycle" depart="3540.80" departLane="best" from="-543914348" to="563620286"/>
    <trip id="bike156" type="bike_bicycle" depart="3586.78" departLane="best" from="-563602475#0" to="-335765986#3"/>
    <trip id="bike157" type="bike_bicycle" depart="3609.77" departLane="best" from="563602575#3" to="586413259#0"/>
    <trip id="bike158" type="bike_bicycle" depart="3632.77" departLane="best" from="-563620287#1" to="440267648#3"/>
    <trip id="bike159" type="bike_bicycle" depart="3655.76" departLane="best" departSpeed="max" from="-372707394" to="586413246#18"/>
    <trip id="bike161" type="bike_bicycle" depart="3701.74" departLane="best" from="563602675#0" to="565255792#2"/>
    <trip id="bike162" type="bike_bicycle" depart="3724.74" departLane="best" departSpeed="max" from="-1363617808" to="563602531"/>
    <trip id="bike163" type="bike_bicycle" depart="3747.73" departLane="best" departSpeed="max" from="-563602648" to="-586413246#2"/>
    <trip id="bike164" type="bike_bicycle" depart="3770.72" departLane="best" from="-563602655" to="563620287#1"/>
    <trip id="bike165" type="bike_bicycle" depart="3793.71" departLane="best" from="563602675#0" to="563602653#0"/>
    <trip id="bike166" type="bike_bicycle" depart="3816.70" departLane="best" from="563602644" to="335765986#6"/>
    <trip id="bike167" type="bike_bicycle" depart="3839.70" departLane="best" from="565255792#0" to="563620286"/>
    <trip id="bike169" type="bike_bicycle" depart="3885.68" departLane="best" departSpeed="max" from="-837196483" to="563620270#0"/>
    <trip id="bike170" type="bike_bicycle" depart="3908.67" departLane="best" from="-563602650#0" to="563602505#0"/>
    <trip id="bike172" type="bike_bicycle" depart="3954.66" departLane="best" from="-563602647" to="563620287#1"/>
    <trip id="bike173" type="bike_bicycle" depart="3977.65" departLane="best" from="837196485#0" to="-563602667"/>
    <trip id="bike174" type="bike_bicycle" depart="4000.64" departLane="best" from="-415361889#0" to="9151585#4"/>
    <trip id="bike175" type="bike_bicycle" depart="4023.63" departLane="best" from="-9151585#0" to="276157215#5"/>
    <trip id="bike176" type="bike_bicycle" depart="4046.63" departLane="best" from="-586413246#7" to="372396764#3"/>
    <trip id="bike177" type="bike_bicycle" depart="4069.62" departLane="best" from="837196485#2" to="-543914346#2"/>
    <trip id="bike178" type="bike_bicycle" depart="4092.61" departLane="best" from="586413267#1" to="563602651#1"/>
    <trip id="bike179" type="bike_bicycle" depart="4115.60" departLane="best" from="-276157215#3" to="1363617808"/>
    <trip id="bike180" type="bike_bicycle" depart="4138.60" departLane="best" from="563602496#1" to="-563620281#0"/>
    <trip id="bike181" type="bike_bicycle" depart="4161.59" departLane="best" from="-335765986#5" to="225485355"/>
    <trip id="bike182" type="bike_bicycle" depart="4184.58" departLane="best" from="-563620266" to="372396765#1"/>
    <trip id="bike183" type="bike_bicycle" depart="4207.57" departLane="best" departSpeed="max" from="-563602481" to="563602502"/>
    <trip id="bike184" type="bike_bicycle" depart="4230.56" departLane="best" from="-1020412074" to="586413246#16"/>
    <trip id="bike185" type="bike_bicycle" depart="4253.56" departLane="best" departSpeed="max" from="180244639#0" to="-563602516"/>
    <trip id="bike187" type="bike_bicycle" depart="4299.54" departLane="best" from="-563602683#0" to="225470252#5"/>
    <trip id="bike189" type="bike_bicycle" depart="4345.53" departLane="best" departSpeed="max" from="-563602568#1" to="563620273"/>
    <trip id="bike190" type="bike_bicycle" depart="4368.52" departLane="best" from="-563602666#0" to="-563620264"/>
    <trip id="bike191" type="bike_bicycle" depart="4391.51" departLane="best" departSpeed="max" from="-563602567" to="-920874877#1"/>
    <trip id="bike192" type="bike_bicycle" depart="4414.50" departLane="best" from="-563620286" to="-563620263#0"/>
    <trip id="bike193" type="bike_bicycle" depart="4437.49" departLane="best" from="-335765986#1" to="1046388838#2"/>
    <trip id="bike194" type="bike_bicycle" depart="4460.49" departLane="best" from="-586413246#7" to="563602456"/>
    <trip id="bike195" type="bike_bicycle" depart="4483.48" departLane="best" from="586002130#1" to="-440267648#0"/>
    <trip id="bike196" type="bike_bicycle" depart="4506.47" departLane="best" departSpeed="max" from="-563602559" to="335765983#1"/>
    <trip id="bike197" type="bike_bicycle" depart="4529.46" departLane="best" from="-1020412074" to="-563616188#0"/>
    <trip id="bike198" type="bike_bicycle" depart="4552.45" departLane="best" from="-586413246#12" to="372707394"/>
    <trip id="bike199" type="bike_bicycle" depart="4575.45" departLane="best" departSpeed="max" from="415361892#0" to="180244639#1"/>
    <trip id="bike200" type="bike_bicycle" depart="4598.44" departLane="best" from="-586413246#2" to="335765986#8"/>
    <trip id="bike201" type="bike_bicycle" depart="4621.43" departLane="best" from="-9151585#3" to="586413246#15"/>
    <trip id="bike202" type="bike_bicycle" depart="4644.42" departLane="best" from="-543914348" to="543914344#0"/>
    <trip id="bike204" type="bike_bicycle" depart="4690.41" departLane="best" from="415361884" to="-585994314"/>
    <trip id="bike205" type="bike_bicycle" depart="4713.40" departLane="best" from="-563616187#1" to="563602560#1"/>
    <trip id="bike206" type="bike_bicycle" depart="4736.39" departLane="best" from="-543914343#1" to="-563602500"/>
    <trip id="bike207" type="bike_bicycle" depart="4759.38" departLane="best" from="-543921248#1" to="-180244626#3"/>
    <trip id="bike208" type="bike_bicycle" depart="4782.38" departLane="best" departSpeed="max" from="-563602467" to="180244661#1"/>
    <trip id="bike209" type="bike_bicycle" depart="4805.37" departLane="best" from="-563620281#0" to="225470252#6"/>
    <trip id="bike210" type="bike_bicycle" depart="4828.36" departLane="best" departSpeed="max" from="-585994313" to="543914344#0"/>
    <trip id="bike211" type="bike_bicycle" depart="4851.35" departLane="best" from="-543914348" to="563602478"/>
    <trip id="bike212" type="bike_bicycle" depart="4874.35" departLane="best" from="-1046388838#0" to="-563602522#1"/>
    <trip id="bike213" type="bike_bicycle" depart="4897.34" departLane="best" from="415361892#1" to="-1046388838#0"/>
    <trip id="bike214" type="bike_bicycle" depart="4920.33" departLane="best" from="563602524" to="563602575#3"/>
    <trip id="bike215" type="bike_bicycle" depart="4943.32" departLane="best" from="-276157215#2" to="1134398611"/>
    <trip id="bike216" type="bike_bicycle" depart="4966.31" departLane="best" from="440267648#0" to="586413266#2"/>
    <trip id="bike217" type="bike_bicycle" depart="4989.31" departLane="best" from="-180244632#2" to="-180244639#0"/>
    <trip id="bike218" type="bike_bicycle" depart="5012.30" departLane="best" from="-563602475#0" to="563620273"/>
    <trip id="bike219" type="bike_bicycle" depart="5035.29" departLane="best" from="-586413254#0" to="-563602653#1"/>
    <trip id="bike221" type="bike_bicycle" depart="5081.28" departLane="best" from="335765983#2" to="586413259#1"/>
    <trip id="bike223" type="bike_bicycle" depart="5127.26" departLane="best" from="563602459" to="225477832#1"/>
    <trip id="bike225" type="bike_bicycle" depart="5173.24" departLane="best" from="585997478#1" to="563602541"/>
    <trip id="bike226" type="bike_bicycle" depart="5196.24" departLane="best" from="-9151585#4" to="563602635"/>
    <trip id="bike227" type="bike_bicycle" depart="5219.23" departLane="best" departSpeed="max" from="-563602473" to="-563602657"/>
    <trip id="bike229" type="bike_bicycle" depart="5265.21" departLane="best" from="372715929" to="-563602657"/>
    <trip id="bike230" type="bike_bicycle" depart="5288.21" departLane="best" from="-225470252#5" to="-563616187#1"/>
    <trip id="bike231" type="bike_bicycle" depart="5311.20" departLane="best" from="563602507#1" to="-563620282"/>
    <trip id="bike232" type="bike_bicycle" depart="5334.19" departLane="best" departSpeed="max" from="180244639#0" to="-415361886#0"/>
    <trip id="bike237" type="bike_bicycle" depart="5449.15" departLane="best" from="586080836#1" to="586002131#0"/>
    <trip id="bike238" type="bike_bicycle" depart="5472.14" departLane="best" from="276157215#1" to="563602478"/>
    <trip id="bike239" type="bike_bicycle" depart="5495.14" departLane="best" from="563620284" to="563602575#0"/>
    <trip id="bike240" type="bike_bicycle" depart="5518.13" departLane="best" from="563620263#1" to="-1046388838#0"/>
    <trip id="bike241" type="bike_bicycle" depart="5541.12" departLane="best" departSpeed="max" from="-563602673" to="563602568#1"/>
    <trip id="bike242" type="bike_bicycle" depart="5564.11" departLane="best" from="-335766023#0" to="586413259#3"/>
    <trip id="bike243" type="bike_bicycle" depart="5587.10" departLane="best" from="180244626#4" to="563602548"/>
    <trip id="bike244" type="bike_bicycle" depart="5610.10" departLane="best" from="180244661#2" to="415361886#2"/>
    <trip id="bike246" type="bike_bicycle" depart="5656.08" departLane="best" from="-586413246#16" to="180244632#3"/>
    <trip id="bike247" type="bike_bicycle" depart="5679.07" departLane="best" from="-563602653#0" to="563602469"/>
    <trip id="bike249" type="bike_bicycle" depart="5725.06" departLane="best" from="-9122002" to="-372715927#0"/>
    <trip id="bike250" type="bike_bicycle" depart="5748.05" departLane="best" from="-372396764#6" to="180244632#1"/>
    <trip id="bike251" type="bike_bicycle" depart="5771.04" departLane="best" from="-563620277" to="335765986#8"/>
    <trip id="bike252" type="bike_bicycle" depart="5794.03" departLane="best" from="586080835" to="543914349#1"/>
    <trip id="bike253" type="bike_bicycle" depart="5817.03" departLane="best" from="-335765986#6" to="180244637#0"/>
    <trip id="bike254" type="bike_bicycle" depart="5840.02" departLane="best" from="-180244637#1" to="-837196485#0"/>
    <trip id="bike255" type="bike_bicycle" depart="5863.01" departLane="best" departSpeed="max" from="-561883405" to="-563620298"/>
    <trip id="bike256" type="bike_bicycle" depart="5886.00" departLane="best" from="563602537#1" to="-837196485#0"/>
    <trip id="bike257" type="bike_bicycle" depart="5908.99" departLane="best" from="563602526#1" to="563616188#4"/>
    <trip id="bike258" type="bike_bicycle" depart="5931.99" departLane="best" departSpeed="max" from="-563602481" to="-276157215#0"/>
    <trip id="bike259" type="bike_bicycle" depart="5954.98" departLane="best" from="-1363617806" to="276157215#6"/>
    <trip id="bike260" type="bike_bicycle" depart="5977.97" departLane="best" from="920874877#4" to="-586413246#12"/>
    <trip id="bike261" type="bike_bicycle" depart="6000.96" departLane="best" from="415361891" to="563602641"/>
    <trip id="bike262" type="bike_bicycle" depart="6023.96" departLane="best" departSpeed="max" from="415361892#0" to="563602568#1"/>
    <trip id="bike264" type="bike_bicycle" depart="6069.94" departLane="best" from="-1363617806" to="-415361892#0"/>
    <trip id="bike266" type="bike_bicycle" depart="6115.92" departLane="best" from="-585997479" to="-563602486"/>
    <trip id="bike268" type="bike_bicycle" depart="6161.91" departLane="best" from="415361889#0" to="415361889#1"/>
    <trip id="bike269" type="bike_bicycle" depart="6184.90" departLane="best" from="563602522#0" to="-372396764#0"/>
    <trip id="bike270" type="bike_bicycle" depart="6207.89" departLane="best" from="563616187#1" to="837196484"/>
    <trip id="bike271" type="bike_bicycle" depart="6230.89" departLane="best" from="-276157215#3" to="180244632#1"/>
    <trip id="bike272" type="bike_bicycle" depart="6253.88" departLane="best" departSpeed="max" from="-563602568#1" to="563602456"/>
    <trip id="bike273" type="bike_bicycle" depart="6276.87" departLane="best" from="565255792#5" to="9151585#3"/>
    <trip id="bike275" type="bike_bicycle" depart="6322.85" departLane="best" from="543921248#1" to="543914343#2"/>
    <trip id="bike277" type="bike_bicycle" depart="6368.84" departLane="best" from="-563620281#0" to="415361886#1"/>
    <trip id="bike278" type="bike_bicycle" depart="6391.83" departLane="best" from="-335765983#0" to="9151585#3"/>
    <trip id="bike279" type="bike_bicycle" depart="6414.82" departLane="best" from="563602641" to="586413246#1"/>
    <trip id="bike280" type="bike_bicycle" depart="6437.82" departLane="best" from="-586413246#11" to="-586413246#7"/>
    <trip id="bike281" type="bike_bicycle" depart="6460.81" departLane="best" from="1363617807" to="-586080836#1"/>
    <trip id="bike282" type="bike_bicycle" depart="6483.80" departLane="best" from="-563620281#0" to="563616187#1"/>
    <trip id="bike283" type="bike_bicycle" depart="6506.79" departLane="best" from="-276157215#2" to="586413266#3"/>
    <trip id="bike284" type="bike_bicycle" depart="6529.78" departLane="best" from="415361885" to="563616188#2"/>
    <trip id="bike286" type="bike_bicycle" depart="6575.77" departLane="best" from="-563602505#0" to="837196484"/>
    <trip id="bike287" type="bike_bicycle" depart="6598.76" departLane="best" from="563602520" to="563602659"/>
    <trip id="bike288" type="bike_bicycle" depart="6621.75" departLane="best" departSpeed="max" from="180244639#0" to="183191792#0"/>
    <trip id="bike289" type="bike_bicycle" depart="6644.74" departLane="best" from="-586413246#16" to="563602528#0"/>
    <trip id="bike290" type="bike_bicycle" depart="6667.74" departLane="best" from="-563602505#1" to="563620278"/>