<?xml version="1.0" encoding="UTF-8"?>

<!-- generated on 2025-03-06 07:22:20.293770 by osmWebWizard.py v1_22_0+0002-63e50f52594
<configuration>
    <net-file value="C:\Users\evans\Sumo\2025-03-06-07-22-14\osm.net.xml.gz"/>
    <output-trip-file value="C:\Users\evans\Sumo\2025-03-06-07-22-14\osm.bus.trips.xml"/>
    <route-file value="C:\Users\evans\Sumo\2025-03-06-07-22-14\osm.bus.rou.xml"/>
    <prefix value="bus"/>
    <trip-attributes value="departLane=&quot;best&quot;"/>
    <fringe-start-attributes value="departSpeed=&quot;max&quot;"/>
    <vehicle-class value="bus"/>
    <fringe-factor value="5"/>
    <vclass value="bus"/>
    <via-edge-types value="highway.motorway,highway.motorway_link,highway.trunk_link,highway.primary_link,highway.secondary_link,highway.tertiary_link"/>
    <min-distance value="600.0"/>
    <min-distance.fringe value="10.0"/>
    <remove-loops value="True"/>
    <validate value="True"/>
    <end value="86400.0"/>
    <insertion-density value="4.0"/>
</configuration>
-->

<!-- generated on 2025-03-06 07:22:20 by Eclipse SUMO duarouter Version 1.22.0
<duarouterConfiguration xmlns:xsi="http://www.w3.org/2001/XMLSchema-instance" xsi:noNamespaceSchemaLocation="http://sumo.dlr.de/xsd/duarouterConfiguration.xsd">

    <input>
        <net-file value="C:\Users\evans\Sumo\2025-03-06-07-22-14\osm.net.xml.gz"/>
        <route-files value="C:\Users\evans\Sumo\2025-03-06-07-22-14\osm.bus.trips.xml"/>
    </input>

    <output>
        <output-file value="C:\Users\evans\Sumo\2025-03-06-07-22-14\osm.bus.trips.xml.tmp"/>
        <alternatives-output value="NUL"/>
        <write-trips value="true"/>
    </output>

    <processing>
        <remove-loops value="true"/>
    </processing>

    <time>
        <begin value="0.0"/>
        <end value="86400.0"/>
    </time>

    <report>
        <no-warnings value="true"/>
        <ignore-errors value="true"/>
        <no-step-log value="true"/>
    </report>

</duarouterConfiguration>
-->

<routes xmlns:xsi="http://www.w3.org/2001/XMLSchema-instance" xsi:noNamespaceSchemaLocation="http://sumo.dlr.de/xsd/routes_file.xsd">
    <vType id="bus_bus" vClass="bus"/>
    <trip id="bus0" type="bus_bus" depart="0.00" departLane="best" from="565255792#1" to="-1315084524"/>
    <trip id="bus1" type="bus_bus" depart="100.11" departLane="best" from="-586413246#17" to="-586080837"/>
    <trip id="bus2" type="bus_bus" depart="200.21" departLane="best" from="586413256" to="-180244636#4"/>
    <trip id="bus3" type="bus_bus" depart="300.32" departLane="best" from="180244628" to="180244652"/>
    <trip id="bus5" type="bus_bus" depart="500.53" departLane="best" from="565255792#3" to="276157215#4"/>
    <trip id="bus6" type="bus_bus" depart="600.63" departLane="best" from="586413246#15" to="-1315084524"/>
    <trip id="bus7" type="bus_bus" depart="700.74" departLane="best" departSpeed="max" from="-180244652" to="-180244637#0"/>
    <trip id="bus10" type="bus_bus" depart="1001.06" departLane="best" departSpeed="max" from="-180244652" to="-586413246#1"/>
    <trip id="bus11" type="bus_bus" depart="1101.16" departLane="best" from="565255792#1" to="9151585#1"/>
    <trip id="bus13" type="bus_bus" depart="1301.37" departLane="best" departSpeed="max" from="-276157215#6" to="586413266#1"/>
    <trip id="bus15" type="bus_bus" depart="1501.58" departLane="best" from="586413246#0" to="-180244636#0"/>
    <trip id="bus16" type="bus_bus" depart="1601.69" departLane="best" from="565255792#4" to="9152018"/>
    <trip id="bus18" type="bus_bus" depart="1801.90" departLane="best" from="-276157215#2" to="-586413246#15"/>
    <trip id="bus19" type="bus_bus" depart="1902.01" departLane="best" from="276157217" to="586413259#0"/>
    <trip id="bus20" type="bus_bus" depart="2002.11" departLane="best" departSpeed="max" from="1315084524" to="-586080837"/>
    <trip id="bus21" type="bus_bus" depart="2102.22" departLane="best" from="-9152018" to="180244652"/>
    <trip id="bus22" type="bus_bus" depart="2202.32" departLane="best" departSpeed="max" from="-180244652" to="-180244636#0"/>
    <trip id="bus24" type="bus_bus" depart="2402.53" departLane="best" from="180244636#2" to="565255792#5"/>
    <trip id="bus25" type="bus_bus" depart="2502.64" departLane="best" from="565255794" to="276157215#3"/>
    <trip id="bus27" type="bus_bus" depart="2702.85" departLane="best" departSpeed="max" from="180244636#0" to="-9129472"/>
    <trip id="bus28" type="bus_bus" depart="2802.96" departLane="best" from="586413259#2" to="586413246#8"/>
    <trip id="bus31" type="bus_bus" depart="3103.27" departLane="best" from="180244636#4" to="586413266#1"/>
    <trip id="bus32" type="bus_bus" depart="3203.38" departLane="best" from="-586413249#1" to="586413246#18"/>
    <trip id="bus39" type="bus_bus" depart="3904.12" departLane="best" departSpeed="max" from="180244636#0" to="276157215#0"/>
    <trip id="bus41" type="bus_bus" depart="4104.33" departLane="best" from="-586413246#11" to="565245613"/>
    <trip id="bus43" type="bus_bus" depart="4304.54" departLane="best" from="565255792#5" to="276157215#6"/>
    <trip id="bus44" type="bus_bus" depart="4404.64" departLane="best" departSpeed="max" from="-180244652" to="-180244636#5"/>
    <trip id="bus47" type="bus_bus" depart="4704.96" departLane="best" departSpeed="max" from="1315084524" to="-586413246#17"/>
    <trip id="bus48" type="bus_bus" depart="4805.07" departLane="best" from="-276157215#0" to="-180244636#0"/>
    <trip id="bus49" type="bus_bus" depart="4905.17" departLane="best" from="-9151585#3" to="586413266#1"/>
    <trip id="bus51" type="bus_bus" depart="5105.38" departLane="best" departSpeed="max" from="1315084524" to="-180244636#0"/>
    <trip id="bus54" type="bus_bus" depart="5405.70" departLane="best" from="586413256" to="-586413246#12"/>
    <trip id="bus56" type="bus_bus" depart="5605.91" departLane="best" from="-586413246#6" to="586002131#0"/>
    <trip id="bus62" type="bus_bus" depart="6206.54" departLane="best" from="180244636#4" to="586413259#1"/>
    <trip id="bus63" type="bus_bus" depart="6306.65" departLane="best" departSpeed="max" from="1315084524" to="-586413246#17"/>
    <trip id="bus64" type="bus_bus" depart="6406.76" departLane="best" from="180244636#1" to="-586413246#0"/>
    <trip id="bus65" type="bus_bus" depart="6506.86" departLane="best" departSpeed="max" from="586002130#0" to="276157215#5"/>
    <trip id="bus66" type="bus_bus" depart="6606.97" departLane="best" departSpeed="max" from="-180244652" to="-586413249#0"/>
    <trip id="bus67" type="bus_bus" depart="6707.07" departLane="best" from="586413259#1" to="276157215#4"/>
    <trip id="bus69" type="bus_bus" depart="6907.28" departLane="best" from="-586413246#5" to="586413259#0"/>
    <trip id="bus71" type="bus_bus" depart="7107.49" departLane="best" departSpeed="max" from="-276157215#6" to="586413266#1"/>
    <trip id="bus72" type="bus_bus" depart="7207.60" departLane="best" from="180244636#4" to="565255792#7"/>
    <trip id="bus74" type="bus_bus" depart="7407.81" departLane="best" from="-9151585#2" to="-586413246#17"/>
    <trip id="bus75" type="bus_bus" depart="7507.92" departLane="best" from="565255792#2" to="-586080837"/>
    <trip id="bus77" type="bus_bus" depart="7708.13" departLane="best" from="-9151585#0" to="-586413246#15"/>
    <trip id="bus78" type="bus_bus" depart="7808.23" departLane="best" from="180244636#1" to="586413266#1"/>
    <trip id="bus82" type="bus_bus" depart="8208.66" departLane="best" from="180244636#2" to="586413259#1"/>
    <trip id="bus83" type="bus_bus" depart="8308.76" departLane="best" from="586413246#13" to="276157215#5"/>
    <trip id="bus84" type="bus_bus" depart="8408.87" departLane="best" from="565255792#0" to="-586413249#0"/>
    <trip id="bus86" type="bus_bus" depart="8609.08" departLane="best" from="-276157215#0" to="-180244636#4"/>
    <trip id="bus87" type="bus_bus" depart="8709.18" departLane="best" departSpeed="max" from="586002130#0" to="180244652"/>
    <trip id="bus88" type="bus_bus" depart="8809.29" departLane="best" from="586413246#18" to="276157215#5"/>
    <trip id="bus91" type="bus_bus" depart="9109.61" departLane="best" departSpeed="max" from="-180244652" to="-586413246#2"/>
    <trip id="bus95" type="bus_bus" depart="9510.03" departLane="best" departSpeed="max" from="1315084524" to="586413259#1"/>
    <trip id="bus96" type="bus_bus" depart="9610.13" departLane="best" from="276157217" to="565255792#0"/>
    <trip id="bus97" type="bus_bus" depart="9710.24" departLane="best" departSpeed="max" from="180244636#0" to="-1315084524"/>
    <trip id="bus100" type="bus_bus" depart="10010.56" departLane="best" from="-565255794" to="-586413246#8"/>
    <trip id="bus106" type="bus_bus" depart="10611.19" departLane="best" from="586413246#16" to="9151585#1"/>
    <trip id="bus107" type="bus_bus" depart="10711.29" departLane="best" from="-586413246#6" to="565245613"/>
    <trip id="bus108" type="bus_bus" depart="10811.40" departLane="best" departSpeed="max" from="586002130#0" to="-180244636#3"/>
    <trip id="bus110" type="bus_bus" depart="11011.61" departLane="best" departSpeed="max" from="-180244652" to="586413246#0"/>
    <trip id="bus112" type="bus_bus" depart="11211.82" departLane="best" from="586413246#4" to="586413246#17"/>
    <trip id="bus113" type="bus_bus" depart="11311.93" departLane="best" departSpeed="max" from="-180244652" to="9151585#0"/>
    <trip id="bus115" type="bus_bus" depart="11512.14" departLane="best" departSpeed="max" from="586002130#0" to="9151585#1"/>
    <trip id="bus117" type="bus_bus" depart="11712.35" departLane="best" departSpeed="max" from="180244636#0" to="565255792#6"/>
    <trip id="bus118" type="bus_bus" depart="11812.46" departLane="best" from="-586413246#18" to="-180244636#4"/>
    <trip id="bus119" type="bus_bus" depart="11912.56" departLane="best" from="586413249#1" to="-586413246#12"/>
    <trip id="bus121" type="bus_bus" depart="12112.77" departLane="best" from="-586413246#5" to="-565255794"/>
    <trip id="bus122" type="bus_bus" depart="12212.88" departLane="best" from="180244636#2" to="586413267#1"/>
    <trip id="bus123" type="bus_bus" depart="12312.98" departLane="best" from="180244636#4" to="586002131#1"/>
    <trip id="bus125" type="bus_bus" depart="12513.19" departLane="best" departSpeed="max" from="-180244652" to="-586080837"/>
    <trip id="bus131" type="bus_bus" depart="13113.83" departLane="best" from="180244636#3" to="565255792#5"/>
    <trip id="bus132" type="bus_bus" depart="13213.93" departLane="best" from="-586413246#18" to="-180244637#1"/>
    <trip id="bus135" type="bus_bus" depart="13514.25" departLane="best" from="586413246#7" to="180244652"/>
    <trip id="bus136" type="bus_bus" depart="13614.36" departLane="best" from="180244636#1" to="-180244637#0"/>
    <trip id="bus145" type="bus_bus" depart="14515.31" departLane="best" from="-586413246#18" to="-180244636#2"/>
    <trip id="bus146" type="bus_bus" depart="14615.41" departLane="best" from="586002130#1" to="276157215#6"/>
    <trip id="bus147" type="bus_bus" depart="14715.52" departLane="best" departSpeed="max" from="-180244652" to="9151585#0"/>
    <trip id="bus149" type="bus_bus" depart="14915.73" departLane="best" from="586413246#15" to="276157215#5"/>
    <trip id="bus150" type="bus_bus" depart="15015.83" departLane="best" departSpeed="max" from="1315084524" to="180244652"/>
    <trip id="bus152" type="bus_bus" depart="15216.04" departLane="best" from="180244645" to="-180244636#2"/>
    <trip id="bus155" type="bus_bus" depart="15516.36" departLane="best" departSpeed="max" from="180244636#0" to="565255792#1"/>
    <trip id="bus157" type="bus_bus" depart="15716.57" departLane="best" from="-9151585#6" to="586413259#2"/>
    <trip id="bus158" type="bus_bus" depart="15816.68" departLane="best" departSpeed="max" from="586002130#0" to="180244652"/>
    <trip id="bus159" type="bus_bus" depart="15916.78" departLane="best" from="-586413246#18" to="-586413246#4"/>
    <trip id="bus160" type="bus_bus" depart="16016.89" departLane="best" from="180244636#4" to="276157215#1"/>
    <trip id="bus162" type="bus_bus" depart="16217.10" departLane="best" from="586413246#0" to="-180244636#0"/>
    <trip id="bus163" type="bus_bus" depart="16317.21" departLane="best" from="-9151585#4" to="180244652"/>
    <trip id="bus164" type="bus_bus" depart="16417.31" departLane="best" from="-180244637#0" to="180244652"/>
    <trip id="bus165" type="bus_bus" depart="16517.42" departLane="best" departSpeed="max" from="586002130#0" to="-180244636#2"/>
    <trip id="bus166" type="bus_bus" depart="16617.52" departLane="best" from="565255792#4" to="276157215#2"/>
    <trip id="bus167" type="bus_bus" depart="16717.63" departLane="best" from="565255792#3" to="586413246#5"/>
    <trip id="bus169" type="bus_bus" depart="16917.84" departLane="best" from="586002130#1" to="-180244636#5"/>
    <trip id="bus171" type="bus_bus" depart="17118.05" departLane="best" from="-586413246#11" to="586413259#2"/>
    <trip id="bus173" type="bus_bus" depart="17318.26" departLane="best" from="565255792#1" to="-180244636#4"/>
    <trip id="bus176" type="bus_bus" depart="17618.58" departLane="best" from="-586413246#17" to="276157215#6"/>
    <trip id="bus178" type="bus_bus" depart="17818.79" departLane="best" from="180244636#5" to="586413259#1"/>
    <trip id="bus179" type="bus_bus" depart="17918.89" departLane="best" from="565255792#3" to="586413246#5"/>
    <trip id="bus180" type="bus_bus" depart="18019.00" departLane="best" departSpeed="max" from="180244636#0" to="276157215#6"/>
    <trip id="bus181" type="bus_bus" depart="18119.11" departLane="best" departSpeed="max" from="586002130#0" to="-180244636#5"/>
    <trip id="bus186" type="bus_bus" depart="18619.63" departLane="best" departSpeed="max" from="586002130#0" to="9151585#4"/>
    <trip id="bus187" type="bus_bus" depart="18719.74" departLane="best" from="-9151585#2" to="586413246#14"/>
    <trip id="bus188" type="bus_bus" depart="18819.84" departLane="best" departSpeed="max" from="180244636#0" to="565245613"/>
    <trip id="bus189" type="bus_bus" depart="18919.95" departLane="best" from="180244636#5" to="586413254#1"/>
    <trip id="bus190" type="bus_bus" depart="19020.06" departLane="best" from="-276157215#2" to="586413259#3"/>
    <trip id="bus191" type="bus_bus" depart="19120.16" departLane="best" from="-276157215#5" to="586413267#1"/>
    <trip id="bus192" type="bus_bus" depart="19220.27" departLane="best" from="-586413246#5" to="180244652"/>
    <trip id="bus193" type="bus_bus" depart="19320.37" departLane="best" departSpeed="max" from="-180244652" to="-586413249#0"/>
    <trip id="bus195" type="bus_bus" depart="19520.58" departLane="best" from="586413267#1" to="-180244636#3"/>
    <trip id="bus196" type="bus_bus" depart="19620.69" departLane="best" from="9129472" to="-180244636#0"/>
    <trip id="bus197" type="bus_bus" depart="19720.79" departLane="best" departSpeed="max" from="-180244652" to="565245613"/>
    <trip id="bus198" type="bus_bus" depart="19820.90" departLane="best" from="586413263#1" to="9151585#4"/>
    <trip id="bus202" type="bus_bus" depart="20221.32" departLane="best" departSpeed="max" from="-276157215#6" to="586413259#0"/>
    <trip id="bus204" type="bus_bus" depart="20421.53" departLane="best" from="-586413246#13" to="-276157217"/>
    <trip id="bus205" type="bus_bus" depart="20521.64" departLane="best" from="276157217" to="-180244636#0"/>
    <trip id="bus207" type="bus_bus" depart="20721.85" departLane="best" from="586413246#1" to="180244652"/>
    <trip id="bus208" type="bus_bus" depart="20821.96" departLane="best" from="-276157215#0" to="180244652"/>
    <trip id="bus209" type="bus_bus" depart="20922.06" departLane="best" from="586413267#1" to="-180244636#0"/>
    <trip id="bus210" type="bus_bus" depart="21022.17" departLane="best" from="586413259#2" to="-180244636#2"/>
    <trip id="bus212" type="bus_bus" depart="21222.38" departLane="best" from="565255792#0" to="276157215#5"/>
    <trip id="bus215" type="bus_bus" depart="21522.69" departLane="best" departSpeed="max" from="180244636#0" to="-586413246#0"/>
    <trip id="bus217" type="bus_bus" depart="21722.91" departLane="best" from="586413263#1" to="-180244636#1"/>
    <trip id="bus218" type="bus_bus" depart="21823.01" departLane="best" from="-586413246#18" to="-180244637#0"/>
    <trip id="bus219" type="bus_bus" depart="21923.12" departLane="best" from="586413246#15" to="276157215#6"/>
    <trip id="bus221" type="bus_bus" depart="22123.33" departLane="best" from="586002130#1" to="586413246#7"/>
    <trip id="bus222" type="bus_bus" depart="22223.43" departLane="best" departSpeed="max" from="586002130#0" to="9151585#1"/>
    <trip id="bus224" type="bus_bus" depart="22423.64" departLane="best" from="-9151585#3" to="586002131#1"/>
    <trip id="bus225" type="bus_bus" depart="22523.75" departLane="best" from="-276157215#4" to="586413246#14"/>
    <trip id="bus227" type="bus_bus" depart="22723.96" departLane="best" from="565255792#2" to="-1315084524"/>
    <trip id="bus229" type="bus_bus" depart="22924.17" departLane="best" from="565255792#0" to="-1315084524"/>
    <trip id="bus231" type="bus_bus" depart="23124.38" departLane="best" from="-9151585#3" to="586413266#2"/>
    <trip id="bus232" type="bus_bus" depart="23224.49" departLane="best" departSpeed="max" from="-180244652" to="-180244636#0"/>
    <trip id="bus235" type="bus_bus" depart="23524.81" departLane="best" from="180244628" to="586413246#18"/>
    <trip id="bus236" type="bus_bus" depart="23624.91" departLane="best" from="565255792#6" to="-180244636#0"/>
    <trip id="bus238" type="bus_bus" depart="23825.12" departLane="best" from="565255794" to="276157215#0"/>
    <trip id="bus241" type="bus_bus" depart="24125.44" departLane="best" from="586413263#1" to="-180244636#5"/>
    <trip id="bus242" type="bus_bus" depart="24225.54" departLane="best" departSpeed="max" from="-276157215#6" to="180244652"/>
    <trip id="bus243" type="bus_bus" depart="24325.65" departLane="best" from="-276157215#1" to="180244652"/>
    <trip id="bus244" type="bus_bus" depart="24425.76" departLane="best" departSpeed="max" from="586002130#0" to="586413246#16"/>
    <trip id="bus246" type="bus_bus" depart="24625.97" departLane="best" from="586413246#0" to="180244652"/>
    <trip id="bus247" type="bus_bus" depart="24726.07" departLane="best" departSpeed="max" from="180244636#0" to="586413263#1"/>
    <trip id="bus254" type="bus_bus" depart="25426.81" departLane="best" departSpeed="max" from="-180244652" to="586413246#7"/>
    <trip id="bus257" type="bus_bus" depart="25727.13" departLane="best" from="-276157215#1" to="586413246#12"/>
    <trip id="bus260" type="bus_bus" depart="26027.44" departLane="best" departSpeed="max" from="-276157215#6" to="-180244636#0"/>
    <trip id="bus261" type="bus_bus" depart="26127.55" departLane="best" departSpeed="max" from="180244636#0" to="276157215#1"/>
    <trip id="bus262" type="bus_bus" depart="26227.66" departLane="best" from="-586413246#18" to="-180244636#1"/>
    <trip id="bus265" type="bus_bus" depart="26527.97" departLane="best" from="586413259#1" to="586413246#8"/>
    <trip id="bus266" type="bus_bus" depart="26628.08" departLane="best" from="-9151585#2" to="565255792#1"/>
    <trip id="bus268" type="bus_bus" depart="26828.29" departLane="best" from="586413246#15" to="565245613"/>
    <trip id="bus270" type="bus_bus" depart="27028.50" departLane="best" from="565255792#3" to="-180244636#4"/>
    <trip id="bus272" type="bus_bus" depart="27228.71" departLane="best" departSpeed="max" from="-180244652" to="586413246#3"/>
    <trip id="bus273" type="bus_bus" depart="27328.82" departLane="best" departSpeed="max" from="-180244652" to="586413246#0"/>
    <trip id="bus275" type="bus_bus" depart="27529.03" departLane="best" from="586413246#15" to="276157215#4"/>
    <trip id="bus276" type="bus_bus" depart="27629.13" departLane="best" departSpeed="max" from="180244636#0" to="586413246#18"/>
    <trip id="bus278" type="bus_bus" depart="27829.34" departLane="best" from="586413267#1" to="9151585#5"/>
    <trip id="bus279" type="bus_bus" depart="27929.45" departLane="best" departSpeed="max" from="180244636#0" to="586413246#18"/>
    <trip id="bus280" type="bus_bus" depart="28029.56" departLane="best" from="-9151585#2" to="586413246#16"/>
    <trip id="bus281" type="bus_bus" depart="28129.66" departLane="best" from="586413246#14" to="276157215#0"/>
    <trip id="bus283" type="bus_bus" depart="28329.87" departLane="best" departSpeed="max" from="-180244652" to="586413246#4"/>
    <trip id="bus284" type="bus_bus" depart="28429.98" departLane="best" from="586413246#5" to="586413246#18"/>
    <trip id="bus286" type="bus_bus" depart="28630.19" departLane="best" from="586413259#1" to="276157215#1"/>
    <trip id="bus287" type="bus_bus" depart="28730.29" departLane="best" departSpeed="max" from="180244636#0" to="586413267#1"/>
    <trip id="bus289" type="bus_bus" depart="28930.51" departLane="best" from="565255792#3" to="586413246#12"/>
    <trip id="bus290" type="bus_bus" depart="29030.61" departLane="best" from="-276157215#5" to="565255792#2"/>
    <trip id="bus291" type="bus_bus" depart="29130.72" departLane="best" departSpeed="max" from="180244636#0" to="-1315084524"/>
    <trip id="bus292" type="bus_bus" depart="29230.82" departLane="best" departSpeed="max" from="1315084524" to="586413246#12"/>
    <trip id="bus293" type="bus_bus" depart="29330.93" departLane="best" from="180244636#3" to="180244652"/>
    <trip id="bus295" type="bus_bus" depart="29531.14" departLane="best" from="565255792#5" to="-180244636#4"/>
    <trip id="bus297" type="bus_bus" depart="29731.35" departLane="best" from="565255792#1" to="9151585#4"/>
    <trip id="bus298" type="bus_bus" depart="29831.46" departLane="best" from="-586413246#13" to="-1315084524"/>
    <trip id="bus299" type="bus_bus" depart="29931.56" departLane="best" from="-586413249#0" to="-180244636#0"/>
    <trip id="bus300" type="bus_bus" depart="30031.67" departLane="best" departSpeed="max" from="180244636#0" to="565255792#0"/>
    <trip id="bus303" type="bus_bus" depart="30331.98" departLane="best" from="180244645" to="-586413246#13"/>
    <trip id="bus305" type="bus_bus" depart="30532.19" departLane="best" from="565255792#3" to="9151585#6"/>
    <trip id="bus306" type="bus_bus" depart="30632.30" departLane="best" from="-9151585#3" to="180244652"/>
    <trip id="bus307" type="bus_bus" depart="30732.41" departLane="best" departSpeed="max" from="586002130#0" to="-180244636#3"/>
    <trip id="bus309" type="bus_bus" depart="30932.62" departLane="best" departSpeed="max" from="-180244652" to="565245613"/>
    <trip id="bus311" type="bus_bus" depart="31132.83" departLane="best" departSpeed="max" from="1315084524" to="565255792#0"/>
    <trip id="bus312" type="bus_bus" depart="31232.93" departLane="best" from="9129472" to="-180244636#0"/>
    <trip id="bus313" type="bus_bus" depart="31333.04" departLane="best" from="-9152018" to="-586413246#17"/>
    <trip id="bus314" type="bus_bus" depart="31433.14" departLane="best" from="-9151585#4" to="586413267#1"/>
    <trip id="bus315" type="bus_bus" depart="31533.25" departLane="best" from="565255794" to="-9129472"/>
    <trip id="bus317" type="bus_bus" depart="31733.46" departLane="best" from="586413246#1" to="-180244636#0"/>
    <trip id="bus320" type="bus_bus" depart="32033.78" departLane="best" from="-9151585#3" to="586002131#1"/>
    <trip id="bus321" type="bus_bus" depart="32133.88" departLane="best" departSpeed="max" from="586002130#0" to="180244652"/>
    <trip id="bus322" type="bus_bus" depart="32233.99" departLane="best" departSpeed="max" from="180244636#0" to="9152018"/>
    <trip id="bus323" type="bus_bus" depart="32334.09" departLane="best" departSpeed="max" from="-180244652" to="565245613"/>
    <trip id="bus324" type="bus_bus" depart="32434.20" departLane="best" from="-586413254#0" to="-180244636#1"/>
    <trip id="bus325" type="bus_bus" depart="32534.31" departLane="best" from="586413246#5" to="565255792#3"/>
    <trip id="bus326" type="bus_bus" depart="32634.41" departLane="best" from="586413246#12" to="180244652"/>
    <trip id="bus328" type="bus_bus" depart="32834.62" departLane="best" from="-276157215#5" to="586413246#12"/>
    <trip id="bus330" type="bus_bus" depart="33034.83" departLane="best" departSpeed="max" from="-180244652" to="-586413246#5"/>
    <trip id="bus332" type="bus_bus" depart="33235.04" departLane="best" from="-586413246#17" to="-180244636#2"/>
    <trip id="bus334" type="bus_bus" depart="33435.26" departLane="best" departSpeed="max" from="180244636#0" to="565245613"/>
    <trip id="bus336" type="bus_bus" depart="33635.47" departLane="best" from="180244628" to="586413259#2"/>
    <trip id="bus337" type="bus_bus" depart="33735.57" departLane="best" from="-586413246#7" to="586413259#0"/>
    <trip id="bus338" type="bus_bus" depart="33835.68" departLane="best" from="565255792#3" to="586413246#4"/>
    <trip id="bus342" type="bus_bus" depart="34236.10" departLane="best" from="-276157215#2" to="586413246#17"/>
    <trip id="bus343" type="bus_bus" depart="34336.21" departLane="best" from="565255792#2" to="276157215#6"/>
    <trip id="bus345" type="bus_bus" depart="34536.42" departLane="best" departSpeed="max" from="180244636#0" to="180244645"/>
    <trip id="bus346" type="bus_bus" depart="34636.52" departLane="best" departSpeed="max" from="586002130#0" to="586413246#6"/>
    <trip id="bus347" type="bus_bus" depart="34736.63" departLane="best" departSpeed="max" from="-180244652" to="-586413246#2"/>
    <trip id="bus352" type="bus_bus" depart="35237.16" departLane="best" from="9129472" to="-180244636#0"/>
    <trip id="bus353" type="bus_bus" depart="35337.26" departLane="best" from="180244636#5" to="586413254#1"/>
    <trip id="bus355" type="bus_bus" depart="35537.47" departLane="best" from="180244628" to="586413254#1"/>
    <trip id="bus357" type="bus_bus" depart="35737.68" departLane="best" from="-276157215#1" to="-180244636#2"/>
    <trip id="bus358" type="bus_bus" depart="35837.79" departLane="best" from="-586413246#18" to="9151585#6"/>
    <trip id="bus360" type="bus_bus" depart="36038.00" departLane="best" from="586413246#12" to="-586413249#1"/>
    <trip id="bus361" type="bus_bus" depart="36138.11" departLane="best" from="180244637#0" to="-180244636#0"/>
    <trip id="bus364" type="bus_bus" depart="36438.42" departLane="best" from="-9151585#3" to="565245613"/>
    <trip id="bus366" type="bus_bus" depart="36638.63" departLane="best" from="565255794" to="-180244636#0"/>
    <trip id="bus368" type="bus_bus" depart="36838.84" departLane="best" departSpeed="max" from="-276157215#6" to="565255792#0"/>
    <trip id="bus369" type="bus_bus" depart="36938.95" departLane="best" from="586413263#1" to="586413246#8"/>
    <trip id="bus370" type="bus_bus" depart="37039.06" departLane="best" departSpeed="max" from="586002130#0" to="-180244636#1"/>
    <trip id="bus372" type="bus_bus" depart="37239.27" departLane="best" from="-586413246#8" to="565245613"/>
    <trip id="bus373" type="bus_bus" depart="37339.37" departLane="best" departSpeed="max" from="-276157215#6" to="586413259#2"/>
    <trip id="bus375" type="bus_bus" depart="37539.58" departLane="best" from="-586413246#12" to="276157215#6"/>
    <trip id="bus377" type="bus_bus" depart="37739.79" departLane="best" from="565255792#7" to="9151585#5"/>
    <trip id="bus378" type="bus_bus" depart="37839.90" departLane="best" from="-9151585#4" to="586413246#16"/>
    <trip id="bus379" type="bus_bus" depart="37940.01" departLane="best" from="9129472" to="586413246#14"/>
    <trip id="bus384" type="bus_bus" depart="38440.53" departLane="best" from="-586413246#12" to="565245613"/>
    <trip id="bus389" type="bus_bus" depart="38941.06" departLane="best" from="586413259#2" to="-180244636#5"/>
    <trip id="bus390" type="bus_bus" depart="39041.17" departLane="best" from="586413259#3" to="-276157217"/>
    <trip id="bus391" type="bus_bus" depart="39141.27" departLane="best" from="-9152018" to="180244652"/>
    <trip id="bus392" type="bus_bus" depart="39241.38" departLane="best" from="565255792#5" to="9151585#0"/>
    <trip id="bus393" type="bus_bus" depart="39341.48" departLane="best" from="-586413246#18" to="9151585#6"/>
    <trip id="bus395" type="bus_bus" depart="39541.69" departLane="best" from="-586413246#5" to="586413259#0"/>
    <trip id="bus396" type="bus_bus" depart="39641.80" departLane="best" departSpeed="max" from="-180244652" to="565245613"/>
    <trip id="bus400" type="bus_bus" depart="40042.22" departLane="best" departSpeed="max" from="1315084524" to="180244652"/>
    <trip id="bus401" type="bus_bus" depart="40142.33" departLane="best" from="586413259#3" to="-586413246#3"/>
    <trip id="bus403" type="bus_bus" depart="40342.54" departLane="best" from="565255792#5" to="-586080837"/>
    <trip id="bus404" type="bus_bus" depart="40442.64" departLane="best" from="-586413246#12" to="586002131#0"/>
    <trip id="bus405" type="bus_bus" depart="40542.75" departLane="best" departSpeed="max" from="180244636#0" to="565255792#2"/>
    <trip id="bus406" type="bus_bus" depart="40642.86" departLane="best" departSpeed="max" from="-180244652" to="276157215#6"/>
    <trip id="bus409" type="bus_bus" depart="40943.17" departLane="best" from="-9152018" to="586413246#16"/>
    <trip id="bus410" type="bus_bus" depart="41043.28" departLane="best" from="586002130#1" to="276157215#6"/>
    <trip id="bus413" type="bus_bus" depart="41343.59" departLane="best" from="586413266#2" to="-180244636#2"/>
    <trip id="bus414" type="bus_bus" depart="41443.70" departLane="best" from="586413266#2" to="-180244636#0"/>
    <trip id="bus416" type="bus_bus" depart="41643.91" departLane="best" from="565255792#2" to="-180244636#3"/>
    <trip id="bus417" type="bus_bus" depart="41744.02" departLane="best" from="-586413246#8" to="586413259#1"/>