<?xml version="1.0" encoding="UTF-8"?>

<!-- generated on 2025-03-06 07:22:21.408717 by osmWebWizard.py v1_22_0+0002-63e50f52594
<configuration>
    <net-file value="C:\Users\evans\Sumo\2025-03-06-07-22-14\osm.net.xml.gz"/>
    <output-trip-file value="C:\Users\evans\Sumo\2025-03-06-07-22-14\osm.passenger.trips.xml"/>
    <route-file value="C:\Users\evans\Sumo\2025-03-06-07-22-14\osm.passenger.rou.xml"/>
    <prefix value="veh"/>
    <trip-attributes value="departLane=&quot;best&quot;"/>
    <fringe-start-attributes value="departSpeed=&quot;max&quot;"/>
    <vehicle-class value="passenger"/>
    <lanes value="True"/>
    <fringe-factor value="5"/>
    <allow-fringe.min-length value="1000.0"/>
    <via-edge-types value="highway.motorway,highway.motorway_link,highway.trunk_link,highway.primary_link,highway.secondary_link,highway.tertiary_link"/>
    <min-distance value="300.0"/>
    <min-distance.fringe value="10.0"/>
    <remove-loops value="True"/>
    <validate value="True"/>
    <end value="86400.0"/>
    <insertion-density value="12.0"/>
</configuration>
-->

<!-- generated on 2025-03-06 07:22:21 by Eclipse SUMO duarouter Version 1.22.0
<duarouterConfiguration xmlns:xsi="http://www.w3.org/2001/XMLSchema-instance" xsi:noNamespaceSchemaLocation="http://sumo.dlr.de/xsd/duarouterConfiguration.xsd">

    <input>
        <net-file value="C:\Users\evans\Sumo\2025-03-06-07-22-14\osm.net.xml.gz"/>
        <route-files value="C:\Users\evans\Sumo\2025-03-06-07-22-14\osm.passenger.trips.xml"/>
    </input>

    <output>
        <output-file value="C:\Users\evans\Sumo\2025-03-06-07-22-14\osm.passenger.trips.xml.tmp"/>
        <alternatives-output value="NUL"/>
        <write-trips value="true"/>
    </output>

    <processing>
        <remove-loops value="true"/>
    </processing>

    <time>
        <begin value="0.0"/>
        <end value="86400.0"/>
    </time>

    <report>
        <no-warnings value="true"/>
        <ignore-errors value="true"/>
        <no-step-log value="true"/>
    </report>

</duarouterConfiguration>
-->

<routes xmlns:xsi="http://www.w3.org/2001/XMLSchema-instance" xsi:noNamespaceSchemaLocation="http://sumo.dlr.de/xsd/routes_file.xsd">
    <vType id="veh_passenger" vClass="passenger"/>
    <trip id="veh3" type="veh_passenger" depart="100.11" departLane="best" from="-586413246#18" to="276157215#2"/>
    <trip id="veh4" type="veh_passenger" depart="133.47" departLane="best" from="565255792#5" to="9151585#4"/>
    <trip id="veh7" type="veh_passenger" depart="233.58" departLane="best" from="-586413249#1" to="276157215#6"/>
    <trip id="veh8" type="veh_passenger" depart="266.95" departLane="best" from="586413246#12" to="-276157217"/>
    <trip id="veh11" type="veh_passenger" depart="367.05" departLane="best" from="-276157215#0" to="-586080837"/>
    <trip id="veh12" type="veh_passenger" depart="400.42" departLane="best" from="276157217" to="-180244636#3"/>
    <trip id="veh14" type="veh_passenger" depart="467.16" departLane="best" departSpeed="max" from="-276157215#6" to="565245613"/>
    <trip id="veh15" type="veh_passenger" depart="500.53" departLane="best" departSpeed="max" from="-276157215#6" to="180244637#1"/>
    <trip id="veh20" type="veh_passenger" depart="667.37" departLane="best" from="586413246#11" to="586413246#17"/>
    <trip id="veh21" type="veh_passenger" depart="700.74" departLane="best" from="276157217" to="586413259#3"/>
    <trip id="veh22" type="veh_passenger" depart="734.11" departLane="best" from="586413246#16" to="-586413254#0"/>
    <trip id="veh24" type="veh_passenger" depart="800.84" departLane="best" from="-586413246#8" to="276157215#2"/>
    <trip id="veh26" type="veh_passenger" depart="867.58" departLane="best" from="-276157215#0" to="-586413246#16"/>
    <trip id="veh28" type="veh_passenger" depart="934.32" departLane="best" from="-276157215#1" to="-180244636#0"/>
    <trip id="veh30" type="veh_passenger" depart="1001.06" departLane="best" departSpeed="max" from="586002130#0" to="180244652"/>
    <trip id="veh31" type="veh_passenger" depart="1034.42" departLane="best" departSpeed="max" from="-180244652" to="180244637#1"/>
    <trip id="veh32" type="veh_passenger" depart="1067.79" departLane="best" from="9129472" to="586413246#13"/>
    <trip id="veh33" type="veh_passenger" depart="1101.16" departLane="best" from="180244636#3" to="565245613"/>
    <trip id="veh35" type="veh_passenger" depart="1167.90" departLane="best" departSpeed="max" from="1315084524" to="586413266#1"/>
    <trip id="veh36" type="veh_passenger" depart="1201.27" departLane="best" from="180244636#1" to="276157215#4"/>
    <trip id="veh37" type="veh_passenger" depart="1234.64" departLane="best" from="586413246#8" to="586413246#15"/>
    <trip id="veh40" type="veh_passenger" depart="1334.74" departLane="best" departSpeed="max" from="586002130#0" to="276157215#6"/>
    <trip id="veh41" type="veh_passenger" depart="1368.11" departLane="best" from="180244636#1" to="9151585#0"/>
    <trip id="veh43" type="veh_passenger" depart="1434.85" departLane="best" from="586413246#16" to="586002131#1"/>
    <trip id="veh44" type="veh_passenger" depart="1468.21" departLane="best" from="586413246#0" to="-180244636#0"/>
    <trip id="veh45" type="veh_passenger" depart="1501.58" departLane="best" from="586413246#16" to="586413263#1"/>
    <trip id="veh46" type="veh_passenger" depart="1534.95" departLane="best" departSpeed="max" from="-180244652" to="565245613"/>
    <trip id="veh48" type="veh_passenger" depart="1601.69" departLane="best" departSpeed="max" from="1315084524" to="276157215#6"/>
    <trip id="veh52" type="veh_passenger" depart="1735.16" departLane="best" departSpeed="max" from="-276157215#6" to="586413249#1"/>
    <trip id="veh54" type="veh_passenger" depart="1801.90" departLane="best" departSpeed="max" from="1315084524" to="276157215#6"/>
    <trip id="veh60" type="veh_passenger" depart="2002.11" departLane="best" from="565255792#3" to="-276157217"/>
    <trip id="veh61" type="veh_passenger" depart="2035.48" departLane="best" departSpeed="max" from="1315084524" to="586413259#0"/>
    <trip id="veh62" type="veh_passenger" depart="2068.85" departLane="best" departSpeed="max" from="586002130#0" to="276157215#5"/>
    <trip id="veh64" type="veh_passenger" depart="2135.59" departLane="best" from="-9151585#4" to="180244637#1"/>
    <trip id="veh65" type="veh_passenger" depart="2168.95" departLane="best" departSpeed="max" from="1315084524" to="586413246#13"/>
    <trip id="veh66" type="veh_passenger" depart="2202.32" departLane="best" from="180244645" to="-180244636#0"/>
    <trip id="veh67" type="veh_passenger" depart="2235.69" departLane="best" from="-9152018" to="586002131#2"/>
    <trip id="veh70" type="veh_passenger" depart="2335.80" departLane="best" from="-9151585#4" to="-180244636#0"/>
    <trip id="veh71" type="veh_passenger" depart="2369.16" departLane="best" from="-586413249#1" to="9151585#4"/>
    <trip id="veh72" type="veh_passenger" depart="2402.53" departLane="best" departSpeed="max" from="1315084524" to="180244652"/>
    <trip id="veh73" type="veh_passenger" depart="2435.90" departLane="best" from="565255792#5" to="9151585#6"/>
    <trip id="veh74" type="veh_passenger" depart="2469.27" departLane="best" from="-276157215#0" to="565245613"/>
    <trip id="veh75" type="veh_passenger" depart="2502.64" departLane="best" departSpeed="max" from="-276157215#6" to="586413246#7"/>
    <trip id="veh79" type="veh_passenger" depart="2636.11" departLane="best" departSpeed="max" from="-276157215#6" to="586413266#3"/>
    <trip id="veh82" type="veh_passenger" depart="2736.22" departLane="best" from="586413246#2" to="586413246#12"/>
    <trip id="veh85" type="veh_passenger" depart="2836.32" departLane="best" from="-180244637#0" to="586413259#1"/>
    <trip id="veh86" type="veh_passenger" depart="2869.69" departLane="best" departSpeed="max" from="-276157215#6" to="565245613"/>
    <trip id="veh89" type="veh_passenger" depart="2969.80" departLane="best" from="-586413246#12" to="565245613"/>
    <trip id="veh90" type="veh_passenger" depart="3003.17" departLane="best" departSpeed="max" from="-180244652" to="276157215#2"/>
    <trip id="veh92" type="veh_passenger" depart="3069.90" departLane="best" from="-586413246#8" to="276157215#2"/>
    <trip id="veh94" type="veh_passenger" depart="3136.64" departLane="best" from="586002130#1" to="586413246#7"/>
    <trip id="veh98" type="veh_passenger" depart="3270.11" departLane="best" from="276157217" to="-586413246#16"/>
    <trip id="veh99" type="veh_passenger" depart="3303.48" departLane="best" departSpeed="max" from="180244636#0" to="-586413246#7"/>
    <trip id="veh100" type="veh_passenger" depart="3336.85" departLane="best" from="180244636#1" to="565255792#0"/>
    <trip id="veh101" type="veh_passenger" depart="3370.22" departLane="best" from="531094133#1" to="-586413246#15"/>
    <trip id="veh102" type="veh_passenger" depart="3403.59" departLane="best" from="565255792#5" to="276157215#6"/>
    <trip id="veh103" type="veh_passenger" depart="3436.96" departLane="best" from="-586413246#5" to="276157215#6"/>
    <trip id="veh104" type="veh_passenger" depart="3470.33" departLane="best" departSpeed="max" from="-276157215#6" to="-276157215#0"/>
    <trip id="veh105" type="veh_passenger" depart="3503.69" departLane="best" departSpeed="max" from="586002130#0" to="586413246#13"/>
    <trip id="veh108" type="veh_passenger" depart="3603.80" departLane="best" departSpeed="max" from="586002130#0" to="586413246#2"/>
    <trip id="veh110" type="veh_passenger" depart="3670.54" departLane="best" departSpeed="max" from="-276157215#6" to="586413259#0"/>
    <trip id="veh111" type="veh_passenger" depart="3703.91" departLane="best" from="586413246#13" to="9151585#1"/>
    <trip id="veh112" type="veh_passenger" depart="3737.27" departLane="best" departSpeed="max" from="586002130#0" to="586413246#18"/>
    <trip id="veh113" type="veh_passenger" depart="3770.64" departLane="best" from="-586413246#16" to="586413259#0"/>
    <trip id="veh114" type="veh_passenger" depart="3804.01" departLane="best" departSpeed="max" from="586002130#0" to="586413246#14"/>
    <trip id="veh115" type="veh_passenger" depart="3837.38" departLane="best" departSpeed="max" from="586002130#0" to="-586413246#17"/>
    <trip id="veh119" type="veh_passenger" depart="3970.85" departLane="best" from="-180244637#0" to="276157215#5"/>
    <trip id="veh120" type="veh_passenger" depart="4004.22" departLane="best" from="586413267#1" to="-586413246#2"/>
    <trip id="veh123" type="veh_passenger" depart="4104.33" departLane="best" from="586413266#3" to="-586413246#16"/>
    <trip id="veh124" type="veh_passenger" depart="4137.70" departLane="best" from="565255792#2" to="-586413254#0"/>
    <trip id="veh129" type="veh_passenger" depart="4304.54" departLane="best" from="-586413246#11" to="-586413246#1"/>
    <trip id="veh131" type="veh_passenger" depart="4371.28" departLane="best" from="-586413246#1" to="180244652"/>
    <trip id="veh132" type="veh_passenger" depart="4404.64" departLane="best" from="-276157215#4" to="180244652"/>
    <trip id="veh135" type="veh_passenger" depart="4504.75" departLane="best" from="180244628" to="276157215#6"/>
    <trip id="veh136" type="veh_passenger" depart="4538.12" departLane="best" from="180244636#1" to="-586413246#4"/>
    <trip id="veh140" type="veh_passenger" depart="4671.59" departLane="best" departSpeed="max" from="1315084524" to="586413246#6"/>
    <trip id="veh141" type="veh_passenger" depart="4704.96" departLane="best" departSpeed="max" from="586002130#0" to="276157215#3"/>
    <trip id="veh142" type="veh_passenger" depart="4738.33" departLane="best" from="276157215#0" to="276157215#6"/>
    <trip id="veh143" type="veh_passenger" depart="4771.70" departLane="best" from="-276157217" to="9151585#4"/>
    <trip id="veh145" type="veh_passenger" depart="4838.44" departLane="best" departSpeed="max" from="-276157215#6" to="-1315084524"/>
    <trip id="veh147" type="veh_passenger" depart="4905.17" departLane="best" from="586413246#0" to="-180244636#3"/>
    <trip id="veh151" type="veh_passenger" depart="5038.65" departLane="best" from="-276157215#2" to="180244652"/>
    <trip id="veh152" type="veh_passenger" depart="5072.01" departLane="best" departSpeed="max" from="-276157215#6" to="586413266#2"/>
    <trip id="veh154" type="veh_passenger" depart="5138.75" departLane="best" departSpeed="max" from="1315084524" to="565255792#7"/>
    <trip id="veh156" type="veh_passenger" depart="5205.49" departLane="best" from="-276157215#3" to="586413266#1"/>
    <trip id="veh160" type="veh_passenger" depart="5338.96" departLane="best" from="-586413246#4" to="565245613"/>
    <trip id="veh161" type="veh_passenger" depart="5372.33" departLane="best" departSpeed="max" from="1315084524" to="-586413246#15"/>
    <trip id="veh163" type="veh_passenger" depart="5439.07" departLane="best" from="276157217" to="-586413246#18"/>
    <trip id="veh167" type="veh_passenger" depart="5572.54" departLane="best" from="-9152018" to="-565255794"/>
    <trip id="veh168" type="veh_passenger" depart="5605.91" departLane="best" departSpeed="max" from="1315084524" to="586413246#7"/>
    <trip id="veh170" type="veh_passenger" depart="5672.65" departLane="best" from="586413246#11" to="565245613"/>
    <trip id="veh171" type="veh_passenger" depart="5706.02" departLane="best" from="-586413246#3" to="565245613"/>
    <trip id="veh175" type="veh_passenger" depart="5839.49" departLane="best" from="-9151585#5" to="-276157215#3"/>
    <trip id="veh176" type="veh_passenger" depart="5872.86" departLane="best" from="-276157215#5" to="-1315084524"/>
    <trip id="veh178" type="veh_passenger" depart="5939.60" departLane="best" from="-276157217" to="9151585#1"/>
    <trip id="veh180" type="veh_passenger" depart="6006.33" departLane="best" from="565255794" to="586002131#1"/>
    <trip id="veh182" type="veh_passenger" depart="6073.07" departLane="best" from="180244636#5" to="276157215#6"/>
    <trip id="veh183" type="veh_passenger" depart="6106.44" departLane="best" from="586413263#1" to="-276157217"/>
    <trip id="veh191" type="veh_passenger" depart="6373.39" departLane="best" from="-276157215#2" to="565255792#0"/>
    <trip id="veh193" type="veh_passenger" depart="6440.12" departLane="best" departSpeed="max" from="586002130#0" to="9152018"/>
    <trip id="veh194" type="veh_passenger" depart="6473.49" departLane="best" departSpeed="max" from="1315084524" to="-180244636#4"/>
    <trip id="veh195" type="veh_passenger" depart="6506.86" departLane="best" from="180244636#2" to="9151585#5"/>
    <trip id="veh196" type="veh_passenger" depart="6540.23" departLane="best" from="-276157215#2" to="586413266#3"/>
    <trip id="veh197" type="veh_passenger" depart="6573.60" departLane="best" from="276157217" to="586002131#1"/>
    <trip id="veh202" type="veh_passenger" depart="6740.44" departLane="best" from="-586413246#17" to="-586413246#11"/>
    <trip id="veh204" type="veh_passenger" depart="6807.18" departLane="best" from="-586413249#1" to="-1315084524"/>
    <trip id="veh205" type="veh_passenger" depart="6840.55" departLane="best" from="-586413246#0" to="276157215#4"/>
    <trip id="veh206" type="veh_passenger" depart="6873.91" departLane="best" from="276157217" to="586413266#1"/>
    <trip id="veh208" type="veh_passenger" depart="6940.65" departLane="best" from="180244636#3" to="586413263#1"/>
    <trip id="veh209" type="veh_passenger" depart="6974.02" departLane="best" from="-276157215#0" to="565245613"/>
    <trip id="veh210" type="veh_passenger" depart="7007.39" departLane="best" departSpeed="max" from="180244636#0" to="565245613"/>
    <trip id="veh211" type="veh_passenger" depart="7040.76" departLane="best" departSpeed="max" from="180244636#0" to="565255792#5"/>
    <trip id="veh215" type="veh_passenger" depart="7174.23" departLane="best" from="565255792#6" to="9151585#3"/>
    <trip id="veh221" type="veh_passenger" depart="7374.44" departLane="best" departSpeed="max" from="180244636#0" to="565245613"/>
    <trip id="veh224" type="veh_passenger" depart="7474.55" departLane="best" departSpeed="max" from="-276157215#6" to="-1315084524"/>
    <trip id="veh227" type="veh_passenger" depart="7574.65" departLane="best" from="586413246#14" to="276157215#4"/>
    <trip id="veh228" type="veh_passenger" depart="7608.02" departLane="best" from="586413246#15" to="-276157217"/>
    <trip id="veh229" type="veh_passenger" depart="7641.39" departLane="best" departSpeed="max" from="-276157215#6" to="-180244636#0"/>
    <trip id="veh230" type="veh_passenger" depart="7674.76" departLane="best" from="586413259#2" to="276157215#3"/>
    <trip id="veh234" type="veh_passenger" depart="7808.23" departLane="best" from="-276157215#0" to="586413246#8"/>
    <trip id="veh238" type="veh_passenger" depart="7941.71" departLane="best" departSpeed="max" from="1315084524" to="586413246#13"/>
    <trip id="veh239" type="veh_passenger" depart="7975.08" departLane="best" from="-9151585#5" to="586413254#1"/>
    <trip id="veh243" type="veh_passenger" depart="8108.55" departLane="best" departSpeed="max" from="-276157215#6" to="-180244636#4"/>
    <trip id="veh244" type="veh_passenger" depart="8141.92" departLane="best" from="180244636#1" to="276157215#1"/>
    <trip id="veh248" type="veh_passenger" depart="8275.39" departLane="best" departSpeed="max" from="1315084524" to="276157215#6"/>
    <trip id="veh251" type="veh_passenger" depart="8375.50" departLane="best" departSpeed="max" from="-276157215#6" to="586413254#1"/>
    <trip id="veh252" type="veh_passenger" depart="8408.87" departLane="best" from="565255792#7" to="-276157217"/>
    <trip id="veh254" type="veh_passenger" depart="8475.60" departLane="best" from="586413259#2" to="276157215#5"/>
    <trip id="veh256" type="veh_passenger" depart="8542.34" departLane="best" from="-276157215#1" to="586413266#3"/>
    <trip id="veh258" type="veh_passenger" depart="8609.08" departLane="best" from="586413263#1" to="9152018"/>
    <trip id="veh262" type="veh_passenger" depart="8742.55" departLane="best" from="-586413249#1" to="276157215#4"/>
    <trip id="veh264" type="veh_passenger" depart="8809.29" departLane="best" departSpeed="max" from="180244636#0" to="-180244637#0"/>
    <trip id="veh268" type="veh_passenger" depart="8942.76" departLane="best" departSpeed="max" from="586002130#0" to="276157215#6"/>
    <trip id="veh269" type="veh_passenger" depart="8976.13" departLane="best" from="-586413246#13" to="-9129472"/>
    <trip id="veh272" type="veh_passenger" depart="9076.24" departLane="best" departSpeed="max" from="-276157215#6" to="-180244636#2"/>
    <trip id="veh276" type="veh_passenger" depart="9209.71" departLane="best" from="-276157215#4" to="586413246#1"/>
    <trip id="veh277" type="veh_passenger" depart="9243.08" departLane="best" from="-9151585#6" to="586413249#1"/>
    <trip id="veh281" type="veh_passenger" depart="9376.55" departLane="best" from="-9151585#3" to="-586413246#11"/>
    <trip id="veh283" type="veh_passenger" depart="9443.29" departLane="best" from="-586413249#0" to="276157215#6"/>
    <trip id="veh285" type="veh_passenger" depart="9510.03" departLane="best" from="-9152018" to="586413259#1"/>
    <trip id="veh286" type="veh_passenger" depart="9543.40" departLane="best" from="180244636#2" to="586002131#0"/>
    <trip id="veh288" type="veh_passenger" depart="9610.13" departLane="best" departSpeed="max" from="180244636#0" to="276157215#2"/>
    <trip id="veh290" type="veh_passenger" depart="9676.87" departLane="best" from="586413263#1" to="276157215#6"/>
    <trip id="veh291" type="veh_passenger" depart="9710.24" departLane="best" departSpeed="max" from="1315084524" to="9151585#0"/>
    <trip id="veh297" type="veh_passenger" depart="9910.45" departLane="best" from="-276157215#3" to="586413246#15"/>
    <trip id="veh298" type="veh_passenger" depart="9943.82" departLane="best" from="586413246#15" to="276157215#0"/>
    <trip id="veh302" type="veh_passenger" depart="10077.29" departLane="best" from="586413246#1" to="586413246#13"/>
    <trip id="veh303" type="veh_passenger" depart="10110.66" departLane="best" from="586413246#15" to="-1315084524"/>
    <trip id="veh305" type="veh_passenger" depart="10177.40" departLane="best" from="565255792#6" to="276157215#0"/>
    <trip id="veh307" type="veh_passenger" depart="10244.14" departLane="best" from="586413246#15" to="276157215#1"/>
    <trip id="veh311" type="veh_passenger" depart="10377.61" departLane="best" from="-276157215#1" to="586413266#2"/>
    <trip id="veh312" type="veh_passenger" depart="10410.98" departLane="best" departSpeed="max" from="-276157215#6" to="-180244636#4"/>
    <trip id="veh315" type="veh_passenger" depart="10511.08" departLane="best" from="180244636#3" to="565255794"/>
    <trip id="veh318" type="veh_passenger" depart="10611.19" departLane="best" from="531094133#1" to="180244652"/>
    <trip id="veh321" type="veh_passenger" depart="10711.29" departLane="best" departSpeed="max" from="180244636#0" to="-586413246#0"/>
    <trip id="veh325" type="veh_passenger" depart="10844.77" departLane="best" departSpeed="max" from="180244636#0" to="-586413246#6"/>
    <trip id="veh327" type="veh_passenger" depart="10911.51" departLane="best" from="-276157215#4" to="-586080837"/>
    <trip id="veh329" type="veh_passenger" depart="10978.24" departLane="best" from="276157217" to="586413246#6"/>
    <trip id="veh332" type="veh_passenger" depart="11078.35" departLane="best" from="565255792#3" to="180244637#0"/>
    <trip id="veh333" type="veh_passenger" depart="11111.72" departLane="best" departSpeed="max" from="-276157215#6" to="-276157215#0"/>
    <trip id="veh339" type="veh_passenger" depart="11311.93" departLane="best" from="565255792#4" to="276157215#1"/>
    <trip id="veh340" type="veh_passenger" depart="11345.30" departLane="best" from="586413267#1" to="-586413246#13"/>
    <trip id="veh341" type="veh_passenger" depart="11378.66" departLane="best" from="565255792#1" to="9151585#3"/>
    <trip id="veh342" type="veh_passenger" depart="11412.03" departLane="best" from="586413267#1" to="-565255794"/>
    <trip id="veh343" type="veh_passenger" depart="11445.40" departLane="best" from="-586413246#7" to="586413266#3"/>
    <trip id="veh344" type="veh_passenger" depart="11478.77" departLane="best" from="180244636#4" to="276157215#6"/>
    <trip id="veh346" type="veh_passenger" depart="11545.51" departLane="best" from="586002130#1" to="586413259#2"/>
    <trip id="veh347" type="veh_passenger" depart="11578.88" departLane="best" from="-276157215#0" to="586413249#1"/>
    <trip id="veh349" type="veh_passenger" depart="11645.61" departLane="best" from="586002130#1" to="586413246#8"/>
    <trip id="veh350" type="veh_passenger" depart="11678.98" departLane="best" from="180244628" to="180244645"/>
    <trip id="veh351" type="veh_passenger" depart="11712.35" departLane="best" from="-276157215#5" to="180244645"/>
    <trip id="veh352" type="veh_passenger" depart="11745.72" departLane="best" from="-586413246#0" to="276157215#5"/>
    <trip id="veh353" type="veh_passenger" depart="11779.09" departLane="best" from="565255792#5" to="276157215#2"/>
    <trip id="veh354" type="veh_passenger" depart="11812.46" departLane="best" departSpeed="max" from="180244636#0" to="180244645"/>
    <trip id="veh355" type="veh_passenger" depart="11845.82" departLane="best" from="586413263#1" to="-1315084524"/>
    <trip id="veh356" type="veh_passenger" depart="11879.19" departLane="best" from="-586413246#8" to="276157215#1"/>
    <trip id="veh357" type="veh_passenger" depart="11912.56" departLane="best" from="586413263#1" to="586413246#12"/>
    <trip id="veh361" type="veh_passenger" depart="12046.04" departLane="best" departSpeed="max" from="-276157215#6" to="-276157215#0"/>
    <trip id="veh363" type="veh_passenger" depart="12112.77" departLane="best" departSpeed="max" from="586002130#0" to="-586413246#11"/>
    <trip id="veh364" type="veh_passenger" depart="12146.14" departLane="best" departSpeed="max" from="-180244652" to="565245613"/>
    <trip id="veh366" type="veh_passenger" depart="12212.88" departLane="best" from="586413246#14" to="9151585#1"/>
    <trip id="veh367" type="veh_passenger" depart="12246.25" departLane="best" from="-276157215#5" to="586413246#6"/>
    <trip id="veh368" type="veh_passenger" depart="12279.61" departLane="best" from="180244636#1" to="586413246#13"/>
    <trip id="veh369" type="veh_passenger" depart="12312.98" departLane="best" from="-276157215#5" to="-276157215#0"/>
    <trip id="veh372" type="veh_passenger" depart="12413.09" departLane="best" from="180244636#4" to="565255792#4"/>
    <trip id="veh374" type="veh_passenger" depart="12479.83" departLane="best" departSpeed="max" from="-276157215#6" to="-180244636#0"/>
    <trip id="veh375" type="veh_passenger" depart="12513.19" departLane="best" from="565255792#5" to="276157215#6"/>
    <trip id="veh376" type="veh_passenger" depart="12546.56" departLane="best" from="565255792#6" to="276157215#3"/>
    <trip id="veh377" type="veh_passenger" depart="12579.93" departLane="best" departSpeed="max" from="586002130#0" to="276157215#6"/>
    <trip id="veh378" type="veh_passenger" depart="12613.30" departLane="best" from="586413259#3" to="-180244636#0"/>
    <trip id="veh379" type="veh_passenger" depart="12646.67" departLane="best" departSpeed="max" from="586002130#0" to="586413246#15"/>
    <trip id="veh380" type="veh_passenger" depart="12680.04" departLane="best" from="586413267#1" to="-180244636#0"/>
    <trip id="veh384" type="veh_passenger" depart="12813.51" departLane="best" departSpeed="max" from="-180244652" to="-586413246#2"/>
    <trip id="veh385" type="veh_passenger" depart="12846.88" departLane="best" from="-276157217" to="276157215#6"/>
    <trip id="veh386" type="veh_passenger" depart="12880.25" departLane="best" from="-586413246#14" to="9151585#6"/>
    <trip id="veh388" type="veh_passenger" depart="12946.99" departLane="best" from="-276157215#4" to="180244637#1"/>
    <trip id="veh392" type="veh_passenger" depart="13080.46" departLane="best" from="-586413246#17" to="276157215#1"/>
    <trip id="veh394" type="veh_passenger" depart="13147.20" departLane="best" from="-586413249#0" to="276157215#2"/>
    <trip id="veh395" type="veh_passenger" depart="13180.56" departLane="best" from="-586413249#0" to="-180244636#2"/>
    <trip id="veh396" type="veh_passenger" depart="13213.93" departLane="best" from="-276157215#1" to="565245613"/>
    <trip id="veh397" type="veh_passenger" depart="13247.30" departLane="best" departSpeed="max" from="586002130#0" to="276157215#6"/>
    <trip id="veh398" type="veh_passenger" depart="13280.67" departLane="best" from="-586413246#15" to="276157215#0"/>
    <trip id="veh400" type="veh_passenger" depart="13347.41" departLane="best" from="565255792#7" to="586413246#15"/>
    <trip id="veh401" type="veh_passenger" depart="13380.78" departLane="best" from="565255792#0" to="-9129472"/>
    <trip id="veh402" type="veh_passenger" depart="13414.14" departLane="best" from="-276157215#4" to="-586080837"/>
    <trip id="veh405" type="veh_passenger" depart="13514.25" departLane="best" from="-586413246#7" to="565245613"/>
    <trip id="veh406" type="veh_passenger" depart="13547.62" departLane="best" from="-276157215#1" to="-565255794"/>
    <trip id="veh412" type="veh_passenger" depart="13747.83" departLane="best" from="-586413246#17" to="-1315084524"/>
    <trip id="veh413" type="veh_passenger" depart="13781.20" departLane="best" from="586413246#14" to="276157215#6"/>
    <trip id="veh414" type="veh_passenger" depart="13814.57" departLane="best" from="-9151585#4" to="-276157215#1"/>
    <trip id="veh416" type="veh_passenger" depart="13881.30" departLane="best" departSpeed="max" from="1315084524" to="9151585#5"/>
    <trip id="veh417" type="veh_passenger" depart="13914.67" departLane="best" from="-586413246#8" to="565245613"/>
    <trip id="veh418" type="veh_passenger" depart="13948.04" departLane="best" departSpeed="max" from="586002130#0" to="-276157217"/>
    <trip id="veh419" type="veh_passenger" depart="13981.41" departLane="best" from="-276157215#0" to="-180244636#0"/>
    <trip id="veh423" type="veh_passenger" depart="14114.88" departLane="best" departSpeed="max" from="1315084524" to="-586413246#18"/>
    <trip id="veh425" type="veh_passenger" depart="14181.62" departLane="best" departSpeed="max" from="1315084524" to="586413246#3"/>
    <trip id="veh430" type="veh_passenger" depart="14348.46" departLane="best" from="180244636#2" to="565245613"/>
    <trip id="veh431" type="veh_passenger" depart="14381.83" departLane="best" departSpeed="max" from="-276157215#6" to="180244637#1"/>
    <trip id="veh434" type="veh_passenger" depart="14481.94" departLane="best" departSpeed="max" from="-180244652" to="-586413246#13"/>
    <trip id="veh436" type="veh_passenger" depart="14548.67" departLane="best" from="-586413249#0" to="586413246#13"/>
    <trip id="veh438" type="veh_passenger" depart="14615.41" departLane="best" from="586413246#14" to="565255792#7"/>
    <trip id="veh439" type="veh_passenger" depart="14648.78" departLane="best" from="-276157215#5" to="586002131#1"/>
    <trip id="veh441" type="veh_passenger" depart="14715.52" departLane="best" from="-9151585#2" to="586413249#1"/>
    <trip id="veh442" type="veh_passenger" depart="14748.89" departLane="best" from="-586413246#17" to="9151585#3"/>
    <trip id="veh443" type="veh_passenger" depart="14782.25" departLane="best" from="565255792#1" to="586002131#0"/>
    <trip id="veh444" type="veh_passenger" depart="14815.62" departLane="best" from="-276157215#5" to="276157217"/>
    <trip id="veh445" type="veh_passenger" depart="14848.99" departLane="best" from="-276157215#4" to="565245613"/>
    <trip id="veh448" type="veh_passenger" depart="14949.10" departLane="best" from="565255794" to="565245613"/>