<?xml version="1.0" encoding="UTF-8"?>

<!-- generated on 2025-03-06 07:22:23.385065 by osmWebWizard.py v1_22_0+0002-63e50f52594
<configuration>
    <net-file value="C:\Users\evans\Sumo\2025-03-06-07-22-14\osm.net.xml.gz"/>
    <output-trip-file value="C:\Users\evans\Sumo\2025-03-06-07-22-14\osm.truck.trips.xml"/>
    <route-file value="C:\Users\evans\Sumo\2025-03-06-07-22-14\osm.truck.rou.xml"/>
    <prefix value="truck"/>
    <trip-attributes value="departLane=&quot;best&quot;"/>
    <fringe-start-attributes value="departSpeed=&quot;max&quot;"/>
    <vehicle-class value="truck"/>
    <fringe-factor value="5"/>
    <vclass value="truck"/>
    <via-edge-types value="highway.motorway,highway.motorway_link,highway.trunk_link,highway.primary_link,highway.secondary_link,highway.tertiary_link"/>
    <min-distance value="600.0"/>
    <min-distance.fringe value="10.0"/>
    <remove-loops value="True"/>
    <validate value="True"/>
    <end value="86400.0"/>
    <insertion-density value="8.0"/>
</configuration>
-->

<!-- generated on 2025-03-06 07:22:23 by Eclipse SUMO duarouter Version 1.22.0
<duarouterConfiguration xmlns:xsi="http://www.w3.org/2001/XMLSchema-instance" xsi:noNamespaceSchemaLocation="http://sumo.dlr.de/xsd/duarouterConfiguration.xsd">

    <input>
        <net-file value="C:\Users\evans\Sumo\2025-03-06-07-22-14\osm.net.xml.gz"/>
        <route-files value="C:\Users\evans\Sumo\2025-03-06-07-22-14\osm.truck.trips.xml"/>
    </input>

    <output>
        <output-file value="C:\Users\evans\Sumo\2025-03-06-07-22-14\osm.truck.trips.xml.tmp"/>
        <alternatives-output value="NUL"/>
        <write-trips value="true"/>
    </output>

    <processing>
        <remove-loops value="true"/>
    </processing>

    <time>
        <begin value="0.0"/>
        <end value="86400.0"/>
    </time>

    <report>
        <no-warnings value="true"/>
        <ignore-errors value="true"/>
        <no-step-log value="true"/>
    </report>

</duarouterConfiguration>
-->

<routes xmlns:xsi="http://www.w3.org/2001/XMLSchema-instance" xsi:noNamespaceSchemaLocation="http://sumo.dlr.de/xsd/routes_file.xsd">
    <vType id="truck_truck" vClass="truck"/>
    <trip id="truck0" type="truck_truck" depart="0.00" departLane="best" from="565255792#1" to="-1315084524"/>
    <trip id="truck1" type="truck_truck" depart="50.05" departLane="best" from="-586413246#17" to="-586080837"/>
    <trip id="truck2" type="truck_truck" depart="100.11" departLane="best" from="586413256" to="-180244636#4"/>
    <trip id="truck3" type="truck_truck" depart="150.16" departLane="best" from="180244628" to="180244652"/>
    <trip id="truck5" type="truck_truck" depart="250.26" departLane="best" from="565255792#3" to="276157215#4"/>
    <trip id="truck6" type="truck_truck" depart="300.32" departLane="best" from="586413246#15" to="-1315084524"/>
    <trip id="truck7" type="truck_truck" depart="350.37" departLane="best" departSpeed="max" from="-180244652" to="-180244637#0"/>
    <trip id="truck10" type="truck_truck" depart="500.53" departLane="best" departSpeed="max" from="-180244652" to="-586413246#1"/>
    <trip id="truck11" type="truck_truck" depart="550.58" departLane="best" from="565255792#1" to="9151585#1"/>
    <trip id="truck13" type="truck_truck" depart="650.69" departLane="best" departSpeed="max" from="-276157215#6" to="586413266#1"/>
    <trip id="truck15" type="truck_truck" depart="750.79" departLane="best" from="586413246#0" to="-180244636#0"/>
    <trip id="truck16" type="truck_truck" depart="800.84" departLane="best" from="565255792#4" to="9152018"/>
    <trip id="truck18" type="truck_truck" depart="900.95" departLane="best" from="-276157215#2" to="-586413246#15"/>
    <trip id="truck19" type="truck_truck" depart="951.00" departLane="best" from="276157217" to="586413259#0"/>
    <trip id="truck20" type="truck_truck" depart="1001.06" departLane="best" departSpeed="max" from="1315084524" to="-586080837"/>
    <trip id="truck21" type="truck_truck" depart="1051.11" departLane="best" from="-9152018" to="180244652"/>
    <trip id="truck22" type="truck_truck" depart="1101.16" departLane="best" departSpeed="max" from="-180244652" to="-180244636#0"/>
    <trip id="truck24" type="truck_truck" depart="1201.27" departLane="best" from="180244636#2" to="565255792#5"/>
    <trip id="truck25" type="truck_truck" depart="1251.32" departLane="best" from="565255794" to="276157215#3"/>
    <trip id="truck27" type="truck_truck" depart="1351.43" departLane="best" departSpeed="max" from="180244636#0" to="-9129472"/>
    <trip id="truck28" type="truck_truck" depart="1401.48" departLane="best" from="586413259#2" to="586413246#8"/>
    <trip id="truck31" type="truck_truck" depart="1551.64" departLane="best" from="180244636#4" to="586413266#1"/>
    <trip id="truck32" type="truck_truck" depart="1601.69" departLane="best" from="-586413249#1" to="586413246#18"/>
    <trip id="truck39" type="truck_truck" depart="1952.06" departLane="best" departSpeed="max" from="180244636#0" to="276157215#0"/>
    <trip id="truck41" type="truck_truck" depart="2052.16" departLane="best" from="-586413246#11" to="565245613"/>
    <trip id="truck43" type="truck_truck" depart="2152.27" departLane="best" from="565255792#5" to="276157215#6"/>
    <trip id="truck44" type="truck_truck" depart="2202.32" departLane="best" departSpeed="max" from="-180244652" to="-180244636#5"/>
    <trip id="truck47" type="truck_truck" depart="2352.48" departLane="best" departSpeed="max" from="1315084524" to="-586413246#17"/>
    <trip id="truck48" type="truck_truck" depart="2402.53" departLane="best" from="-276157215#0" to="-180244636#0"/>
    <trip id="truck49" type="truck_truck" depart="2452.59" departLane="best" from="-9151585#3" to="586413266#1"/>
    <trip id="truck51" type="truck_truck" depart="2552.69" departLane="best" departSpeed="max" from="1315084524" to="-180244636#0"/>
    <trip id="truck54" type="truck_truck" depart="2702.85" departLane="best" from="586413256" to="-586413246#12"/>
    <trip id="truck56" type="truck_truck" depart="2802.96" departLane="best" from="-586413246#6" to="586002131#0"/>
    <trip id="truck62" type="truck_truck" depart="3103.27" departLane="best" from="180244636#4" to="586413259#1"/>
    <trip id="truck63" type="truck_truck" depart="3153.33" departLane="best" departSpeed="max" from="1315084524" to="-586413246#17"/>
    <trip id="truck64" type="truck_truck" depart="3203.38" departLane="best" from="180244636#1" to="-586413246#0"/>
    <trip id="truck65" type="truck_truck" depart="3253.43" departLane="best" departSpeed="max" from="586002130#0" to="276157215#5"/>
    <trip id="truck66" type="truck_truck" depart="3303.48" departLane="best" departSpeed="max" from="-180244652" to="-586413249#0"/>
    <trip id="truck67" type="truck_truck" depart="3353.54" departLane="best" from="586413259#1" to="276157215#4"/>
    <trip id="truck69" type="truck_truck" depart="3453.64" departLane="best" from="-586413246#5" to="586413259#0"/>
    <trip id="truck71" type="truck_truck" depart="3553.75" departLane="best" departSpeed="max" from="-276157215#6" to="586413266#1"/>
    <trip id="truck72" type="truck_truck" depart="3603.80" departLane="best" from="180244636#4" to="565255792#7"/>
    <trip id="truck74" type="truck_truck" depart="3703.91" departLane="best" from="-9151585#2" to="-586413246#17"/>
    <trip id="truck75" type="truck_truck" depart="3753.96" departLane="best" from="565255792#2" to="-586080837"/>
    <trip id="truck77" type="truck_truck" depart="3854.06" departLane="best" from="-9151585#0" to="-586413246#15"/>
    <trip id="truck78" type="truck_truck" depart="3904.12" departLane="best" from="180244636#1" to="586413266#1"/>
    <trip id="truck82" type="truck_truck" depart="4104.33" departLane="best" from="180244636#2" to="586413259#1"/>
    <trip id="truck83" type="truck_truck" depart="4154.38" departLane="best" from="586413246#13" to="276157215#5"/>
    <trip id="truck84" type="truck_truck" depart="4204.43" departLane="best" from="565255792#0" to="-586413249#0"/>
    <trip id="truck86" type="truck_truck" depart="4304.54" departLane="best" from="-276157215#0" to="-180244636#4"/>
    <trip id="truck87" type="truck_truck" depart="4354.59" departLane="best" departSpeed="max" from="586002130#0" to="180244652"/>
    <trip id="truck88" type="truck_truck" depart="4404.64" departLane="best" from="586413246#18" to="276157215#5"/>
    <trip id="truck91" type="truck_truck" depart="4554.80" departLane="best" departSpeed="max" from="-180244652" to="-586413246#2"/>
    <trip id="truck95" type="truck_truck" depart="4755.01" departLane="best" departSpeed="max" from="1315084524" to="586413259#1"/>
    <trip id="truck96" type="truck_truck" depart="4805.07" departLane="best" from="276157217" to="565255792#0"/>
    <trip id="truck97" type="truck_truck" depart="4855.12" departLane="best" departSpeed="max" from="180244636#0" to="-1315084524"/>
    <trip id="truck100" type="truck_truck" depart="5005.28" departLane="best" from="-565255794" to="-586413246#8"/>
    <trip id="truck106" type="truck_truck" depart="5305.59" departLane="best" from="586413246#16" to="9151585#1"/>
    <trip id="truck107" type="truck_truck" depart="5355.65" departLane="best" from="-586413246#6" to="565245613"/>
    <trip id="truck108" type="truck_truck" depart="5405.70" departLane="best" departSpeed="max" from="586002130#0" to="-180244636#3"/>
    <trip id="truck110" type="truck_truck" depart="5505.81" departLane="best" departSpeed="max" from="-180244652" to="586413246#0"/>
    <trip id="truck112" type="truck_truck" depart="5605.91" departLane="best" from="586413246#4" to="586413246#17"/>
    <trip id="truck113" type="truck_truck" depart="5655.96" departLane="best" departSpeed="max" from="-180244652" to="9151585#0"/>
    <trip id="truck115" type="truck_truck" depart="5756.07" departLane="best" departSpeed="max" from="586002130#0" to="9151585#1"/>
    <trip id="truck117" type="truck_truck" depart="5856.18" departLane="best" departSpeed="max" from="180244636#0" to="565255792#6"/>
    <trip id="truck118" type="truck_truck" depart="5906.23" departLane="best" from="-586413246#18" to="-180244636#4"/>
    <trip id="truck119" type="truck_truck" depart="5956.28" departLane="best" from="586413249#1" to="-586413246#12"/>
    <trip id="truck121" type="truck_truck" depart="6056.39" departLane="best" from="-586413246#5" to="-565255794"/>
    <trip id="truck122" type="truck_truck" depart="6106.44" departLane="best" from="180244636#2" to="586413267#1"/>
    <trip id="truck123" type="truck_truck" depart="6156.49" departLane="best" from="180244636#4" to="586002131#1"/>
    <trip id="truck125" type="truck_truck" depart="6256.60" departLane="best" departSpeed="max" from="-180244652" to="-586080837"/>
    <trip id="truck131" type="truck_truck" depart="6556.91" departLane="best" from="180244636#3" to="565255792#5"/>
    <trip id="truck132" type="truck_truck" depart="6606.97" departLane="best" from="-586413246#18" to="-180244637#1"/>
    <trip id="truck135" type="truck_truck" depart="6757.13" departLane="best" from="586413246#7" to="180244652"/>
    <trip id="truck136" type="truck_truck" depart="6807.18" departLane="best" from="180244636#1" to="-180244637#0"/>
    <trip id="truck145" type="truck_truck" depart="7257.65" departLane="best" from="-586413246#18" to="-180244636#2"/>
    <trip id="truck146" type="truck_truck" depart="7307.71" departLane="best" from="586002130#1" to="276157215#6"/>
    <trip id="truck147" type="truck_truck" depart="7357.76" departLane="best" departSpeed="max" from="-180244652" to="9151585#0"/>
    <trip id="truck149" type="truck_truck" depart="7457.86" departLane="best" from="586413246#15" to="276157215#5"/>
    <trip id="truck150" type="truck_truck" depart="7507.92" departLane="best" departSpeed="max" from="1315084524" to="180244652"/>
    <trip id="truck152" type="truck_truck" depart="7608.02" departLane="best" from="180244645" to="-180244636#2"/>
    <trip id="truck155" type="truck_truck" depart="7758.18" departLane="best" departSpeed="max" from="180244636#0" to="565255792#1"/>
    <trip id="truck157" type="truck_truck" depart="7858.29" departLane="best" from="-9151585#6" to="586413259#2"/>
    <trip id="truck158" type="truck_truck" depart="7908.34" departLane="best" departSpeed="max" from="586002130#0" to="180244652"/>
    <trip id="truck159" type="truck_truck" depart="7958.39" departLane="best" from="-586413246#18" to="-586413246#4"/>
    <trip id="truck160" type="truck_truck" depart="8008.44" departLane="best" from="180244636#4" to="276157215#1"/>
    <trip id="truck162" type="truck_truck" depart="8108.55" departLane="best" from="586413246#0" to="-180244636#0"/>
    <trip id="truck163" type="truck_truck" depart="8158.60" departLane="best" from="-9151585#4" to="180244652"/>
    <trip id="truck164" type="truck_truck" depart="8208.66" departLane="best" from="-180244637#0" to="180244652"/>
    <trip id="truck165" type="truck_truck" depart="8258.71" departLane="best" departSpeed="max" from="586002130#0" to="-180244636#2"/>
    <trip id="truck166" type="truck_truck" depart="8308.76" departLane="best" from="565255792#4" to="276157215#2"/>
    <trip id="truck167" type="truck_truck" depart="8358.81" departLane="best" from="565255792#3" to="586413246#5"/>
    <trip id="truck169" type="truck_truck" depart="8458.92" departLane="best" from="586002130#1" to="-180244636#5"/>
    <trip id="truck171" type="truck_truck" depart="8559.03" departLane="best" from="-586413246#11" to="586413259#2"/>
    <trip id="truck173" type="truck_truck" depart="8659.13" departLane="best" from="565255792#1" to="-180244636#4"/>
    <trip id="truck176" type="truck_truck" depart="8809.29" departLane="best" from="-586413246#17" to="276157215#6"/>
    <trip id="truck178" type="truck_truck" depart="8909.39" departLane="best" from="180244636#5" to="586413259#1"/>
    <trip id="truck179" type="truck_truck" depart="8959.45" departLane="best" from="565255792#3" to="586413246#5"/>
    <trip id="truck180" type="truck_truck" depart="9009.50" departLane="best" departSpeed="max" from="180244636#0" to="276157215#6"/>
    <trip id="truck181" type="truck_truck" depart="9059.55" departLane="best" departSpeed="max" from="586002130#0" to="-180244636#5"/>
    <trip id="truck186" type="truck_truck" depart="9309.82" departLane="best" departSpeed="max" from="586002130#0" to="9151585#4"/>
    <trip id="truck187" type="truck_truck" depart="9359.87" departLane="best" from="-9151585#2" to="586413246#14"/>
    <trip id="truck188" type="truck_truck" depart="9409.92" departLane="best" departSpeed="max" from="180244636#0" to="565245613"/>
    <trip id="truck189" type="truck_truck" depart="9459.98" departLane="best" from="180244636#5" to="586413254#1"/>
    <trip id="truck190" type="truck_truck" depart="9510.03" departLane="best" from="-276157215#2" to="586413259#3"/>
    <trip id="truck191" type="truck_truck" depart="9560.08" departLane="best" from="-276157215#5" to="586413267#1"/>
    <trip id="truck192" type="truck_truck" depart="9610.13" departLane="best" from="-586413246#5" to="180244652"/>
    <trip id="truck193" type="truck_truck" depart="9660.19" departLane="best" departSpeed="max" from="-180244652" to="-586413249#0"/>
    <trip id="truck195" type="truck_truck" depart="9760.29" departLane="best" from="586413267#1" to="-180244636#3"/>
    <trip id="truck196" type="truck_truck" depart="9810.34" departLane="best" from="9129472" to="-180244636#0"/>
    <trip id="truck197" type="truck_truck" depart="9860.40" departLane="best" departSpeed="max" from="-180244652" to="565245613"/>
    <trip id="truck198" type="truck_truck" depart="9910.45" departLane="best" from="586413263#1" to="9151585#4"/>
    <trip id="truck202" type="truck_truck" depart="10110.66" departLane="best" departSpeed="max" from="-276157215#6" to="586413259#0"/>
    <trip id="truck204" type="truck_truck" depart="10210.77" departLane="best" from="-586413246#13" to="-276157217"/>
    <trip id="truck205" type="truck_truck" depart="10260.82" departLane="best" from="276157217" to="-180244636#0"/>
    <trip id="truck207" type="truck_truck" depart="10360.93" departLane="best" from="586413246#1" to="180244652"/>
    <trip id="truck208" type="truck_truck" depart="10410.98" departLane="best" from="-276157215#0" to="180244652"/>
    <trip id="truck209" type="truck_truck" depart="10461.03" departLane="best" from="586413267#1" to="-180244636#0"/>
    <trip id="truck210" type="truck_truck" depart="10511.08" departLane="best" from="586413259#2" to="-180244636#2"/>
    <trip id="truck212" type="truck_truck" depart="10611.19" departLane="best" from="565255792#0" to="276157215#5"/>
    <trip id="truck215" type="truck_truck" depart="10761.35" departLane="best" departSpeed="max" from="180244636#0" to="-586413246#0"/>
    <trip id="truck217" type="truck_truck" depart="10861.45" departLane="best" from="586413263#1" to="-180244636#1"/>
    <trip id="truck218" type="truck_truck" depart="10911.51" departLane="best" from="-586413246#18" to="-180244637#0"/>
    <trip id="truck219" type="truck_truck" depart="10961.56" departLane="best" from="586413246#15" to="276157215#6"/>
    <trip id="truck221" type="truck_truck" depart="11061.66" departLane="best" from="586002130#1" to="586413246#7"/>
    <trip id="truck222" type="truck_truck" depart="11111.72" departLane="best" departSpeed="max" from="586002130#0" to="9151585#1"/>
    <trip id="truck224" type="truck_truck" depart="11211.82" departLane="best" from="-9151585#3" to="586002131#1"/>
    <trip id="truck225" type="truck_truck" depart="11261.88" departLane="best" from="-276157215#4" to="586413246#14"/>
    <trip id="truck227" type="truck_truck" depart="11361.98" departLane="best" from="565255792#2" to="-1315084524"/>
    <trip id="truck229" type="truck_truck" depart="11462.09" departLane="best" from="565255792#0" to="-1315084524"/>
    <trip id="truck231" type="truck_truck" depart="11562.19" departLane="best" from="-9151585#3" to="586413266#2"/>
    <trip id="truck232" type="truck_truck" depart="11612.24" departLane="best" departSpeed="max" from="-180244652" to="-180244636#0"/>
    <trip id="truck235" type="truck_truck" depart="11762.40" departLane="best" from="180244628" to="586413246#18"/>
    <trip id="truck236" type="truck_truck" depart="11812.46" departLane="best" from="565255792#6" to="-180244636#0"/>
    <trip id="truck238" type="truck_truck" depart="11912.56" departLane="best" from="565255794" to="276157215#0"/>
    <trip id="truck241" type="truck_truck" depart="12062.72" departLane="best" from="586413263#1" to="-180244636#5"/>
    <trip id="truck242" type="truck_truck" depart="12112.77" departLane="best" departSpeed="max" from="-276157215#6" to="180244652"/>
    <trip id="truck243" type="truck_truck" depart="12162.83" departLane="best" from="-276157215#1" to="180244652"/>
    <trip id="truck244" type="truck_truck" depart="12212.88" departLane="best" departSpeed="max" from="586002130#0" to="586413246#16"/>
    <trip id="truck246" type="truck_truck" depart="12312.98" departLane="best" from="586413246#0" to="180244652"/>
    <trip id="truck247" type="truck_truck" depart="12363.04" departLane="best" departSpeed="max" from="180244636#0" to="586413263#1"/>
    <trip id="truck254" type="truck_truck" depart="12713.41" departLane="best" departSpeed="max" from="-180244652" to="586413246#7"/>
    <trip id="truck257" type="truck_truck" depart="12863.56" departLane="best" from="-276157215#1" to="586413246#12"/>
    <trip id="truck260" type="truck_truck" depart="13013.72" departLane="best" departSpeed="max" from="-276157215#6" to="-180244636#0"/>
    <trip id="truck261" type="truck_truck" depart="13063.78" departLane="best" departSpeed="max" from="180244636#0" to="276157215#1"/>
    <trip id="truck262" type="truck_truck" depart="13113.83" departLane="best" from="-586413246#18" to="-180244636#1"/>
    <trip id="truck265" type="truck_truck" depart="13263.99" departLane="best" from="586413259#1" to="586413246#8"/>
    <trip id="truck266" type="truck_truck" depart="13314.04" departLane="best" from="-9151585#2" to="565255792#1"/>
    <trip id="truck268" type="truck_truck" depart="13414.14" departLane="best" from="586413246#15" to="565245613"/>
    <trip id="truck270" type="truck_truck" depart="13514.25" departLane="best" from="565255792#3" to="-180244636#4"/>
    <trip id="truck272" type="truck_truck" depart="13614.36" departLane="best" departSpeed="max" from="-180244652" to="586413246#3"/>
    <trip id="truck273" type="truck_truck" depart="13664.41" departLane="best" departSpeed="max" from="-180244652" to="586413246#0"/>
    <trip id="truck275" type="truck_truck" depart="13764.51" departLane="best" from="586413246#15" to="276157215#4"/>
    <trip id="truck276" type="truck_truck" depart="13814.57" departLane="best" departSpeed="max" from="180244636#0" to="586413246#18"/>
    <trip id="truck278" type="truck_truck" depart="13914.67" departLane="best" from="586413267#1" to="9151585#5"/>
    <trip id="truck279" type="truck_truck" depart="13964.73" departLane="best" departSpeed="max" from="180244636#0" to="586413246#18"/>
    <trip id="truck280" type="truck_truck" depart="14014.78" departLane="best" from="-9151585#2" to="586413246#16"/>
    <trip id="truck281" type="truck_truck" depart="14064.83" departLane="best" from="586413246#14" to="276157215#0"/>
    <trip id="truck283" type="truck_truck" depart="14164.94" departLane="best" departSpeed="max" from="-180244652" to="586413246#4"/>
    <trip id="truck284" type="truck_truck" depart="14214.99" departLane="best" from="586413246#5" to="586413246#18"/>
    <trip id="truck286" type="truck_truck" depart="14315.09" departLane="best" from="586413259#1" to="276157215#1"/>
    <trip id="truck287" type="truck_truck" depart="14365.15" departLane="best" departSpeed="max" from="180244636#0" to="586413267#1"/>
    <trip id="truck289" type="truck_truck" depart="14465.25" departLane="best" from="565255792#3" to="586413246#12"/>
    <trip id="truck290" type="truck_truck" depart="14515.31" departLane="best" from="-276157215#5" to="565255792#2"/>
    <trip id="truck291" type="truck_truck" depart="14565.36" departLane="best" departSpeed="max" from="180244636#0" to="-1315084524"/>
    <trip id="truck292" type="truck_truck" depart="14615.41" departLane="best" departSpeed="max" from="1315084524" to="586413246#12"/>
    <trip id="truck293" type="truck_truck" depart="14665.46" departLane="best" from="180244636#3" to="180244652"/>
    <trip id="truck295" type="truck_truck" depart="14765.57" departLane="best" from="565255792#5" to="-180244636#4"/>
    <trip id="truck297" type="truck_truck" depart="14865.68" departLane="best" from="565255792#1" to="9151585#4"/>
    <trip id="truck298" type="truck_truck" depart="14915.73" departLane="best" from="-586413246#13" to="-1315084524"/>
    <trip id="truck299" type="truck_truck" depart="14965.78" departLane="best" from="-586413249#0" to="-180244636#0"/>
    <trip id="truck300" type="truck_truck" depart="15015.83" departLane="best" departSpeed="max" from="180244636#0" to="565255792#0"/>
    <trip id="truck303" type="truck_truck" depart="15165.99" departLane="best" from="180244645" to="-586413246#13"/>
    <trip id="truck305" type="truck_truck" depart="15266.10" departLane="best" from="565255792#3" to="9151585#6"/>
    <trip id="truck306" type="truck_truck" depart="15316.15" departLane="best" from="-9151585#3" to="180244652"/>
    <trip id="truck307" type="truck_truck" depart="15366.20" departLane="best" departSpeed="max" from="586002130#0" to="-180244636#3"/>
    <trip id="truck309" type="truck_truck" depart="15466.31" departLane="best" departSpeed="max" from="-180244652" to="565245613"/>
    <trip id="truck311" type="truck_truck" depart="15566.41" departLane="best" departSpeed="max" from="1315084524" to="565255792#0"/>
    <trip id="truck312" type="truck_truck" depart="15616.47" departLane="best" from="9129472" to="-180244636#0"/>
    <trip id="truck313" type="truck_truck" depart="15666.52" departLane="best" from="-9152018" to="-586413246#17"/>
    <trip id="truck314" type="truck_truck" depart="15716.57" departLane="best" from="-9151585#4" to="586413267#1"/>
    <trip id="truck315" type="truck_truck" depart="15766.63" departLane="best" from="565255794" to="-9129472"/>
    <trip id="truck317" type="truck_truck" depart="15866.73" departLane="best" from="586413246#1" to="-180244636#0"/>
    <trip id="truck320" type="truck_truck" depart="16016.89" departLane="best" from="-9151585#3" to="586002131#1"/>
    <trip id="truck321" type="truck_truck" depart="16066.94" departLane="best" departSpeed="max" from="586002130#0" to="180244652"/>
    <trip id="truck322" type="truck_truck" depart="16116.99" departLane="best" departSpeed="max" from="180244636#0" to="9152018"/>
    <trip id="truck323" type="truck_truck" depart="16167.05" departLane="best" departSpeed="max" from="-180244652" to="565245613"/>
    <trip id="truck324" type="truck_truck" depart="16217.10" departLane="best" from="-586413254#0" to="-180244636#1"/>
    <trip id="truck325" type="truck_truck" depart="16267.15" departLane="best" from="586413246#5" to="565255792#3"/>
    <trip id="truck326" type="truck_truck" depart="16317.21" departLane="best" from="586413246#12" to="180244652"/>
    <trip id="truck328" type="truck_truck" depart="16417.31" departLane="best" from="-276157215#5" to="586413246#12"/>
    <trip id="truck330" type="truck_truck" depart="16517.42" departLane="best" departSpeed="max" from="-180244652" to="-586413246#5"/>
    <trip id="truck332" type="truck_truck" depart="16617.52" departLane="best" from="-586413246#17" to="-180244636#2"/>
    <trip id="truck334" type="truck_truck" depart="16717.63" departLane="best" departSpeed="max" from="180244636#0" to="565245613"/>
    <trip id="truck336" type="truck_truck" depart="16817.73" departLane="best" from="180244628" to="586413259#2"/>
    <trip id="truck337" type="truck_truck" depart="16867.79" departLane="best" from="-586413246#7" to="586413259#0"/>
    <trip id="truck338" type="truck_truck" depart="16917.84" departLane="best" from="565255792#3" to="586413246#4"/>
    <trip id="truck342" type="truck_truck" depart="17118.05" departLane="best" from="-276157215#2" to="586413246#17"/>
    <trip id="truck343" type="truck_truck" depart="17168.10" departLane="best" from="565255792#2" to="276157215#6"/>
    <trip id="truck345" type="truck_truck" depart="17268.21" departLane="best" departSpeed="max" from="180244636#0" to="180244645"/>
    <trip id="truck346" type="truck_truck" depart="17318.26" departLane="best" departSpeed="max" from="586002130#0" to="586413246#6"/>
    <trip id="truck347" type="truck_truck" depart="17368.31" departLane="best" departSpeed="max" from="-180244652" to="-586413246#2"/>
    <trip id="truck352" type="truck_truck" depart="17618.58" departLane="best" from="9129472" to="-180244636#0"/>
    <trip id="truck353" type="truck_truck" depart="17668.63" departLane="best" from="180244636#5" to="586413254#1"/>
    <trip id="truck355" type="truck_truck" depart="17768.74" departLane="best" from="180244628" to="586413254#1"/>
    <trip id="truck357" type="truck_truck" depart="17868.84" departLane="best" from="-276157215#1" to="-180244636#2"/>
    <trip id="truck358" type="truck_truck" depart="17918.89" departLane="best" from="-586413246#18" to="9151585#6"/>
    <trip id="truck360" type="truck_truck" depart="18019.00" departLane="best" from="586413246#12" to="-586413249#1"/>
    <trip id="truck361" type="truck_truck" depart="18069.05" departLane="best" from="180244637#0" to="-180244636#0"/>
    <trip id="truck364" type="truck_truck" depart="18219.21" departLane="best" from="-9151585#3" to="565245613"/>
    <trip id="truck366" type="truck_truck" depart="18319.32" departLane="best" from="565255794" to="-180244636#0"/>
    <trip id="truck368" type="truck_truck" depart="18419.42" departLane="best" departSpeed="max" from="-276157215#6" to="565255792#0"/>
    <trip id="truck369" type="truck_truck" depart="18469.48" departLane="best" from="586413263#1" to="586413246#8"/>
    <trip id="truck370" type="truck_truck" depart="18519.53" departLane="best" departSpeed="max" from="586002130#0" to="-180244636#1"/>
    <trip id="truck372" type="truck_truck" depart="18619.63" departLane="best" from="-586413246#8" to="565245613"/>
    <trip id="truck373" type="truck_truck" depart="18669.69" departLane="best" departSpeed="max" from="-276157215#6" to="586413259#2"/>
    <trip id="truck375" type="truck_truck" depart="18769.79" departLane="best" from="-586413246#12" to="276157215#6"/>
    <trip id="truck377" type="truck_truck" depart="18869.90" departLane="best" from="565255792#7" to="9151585#5"/>
    <trip id="truck378" type="truck_truck" depart="18919.95" departLane="best" from="-9151585#4" to="586413246#16"/>
    <trip id="truck379" type="truck_truck" depart="18970.00" departLane="best" from="9129472" to="586413246#14"/>
    <trip id="truck384" type="truck_truck" depart="19220.27" departLane="best" from="-586413246#12" to="565245613"/>
    <trip id="truck389" type="truck_truck" depart="19470.53" departLane="best" from="586413259#2" to="-180244636#5"/>
    <trip id="truck390" type="truck_truck" depart="19520.58" departLane="best" from="586413259#3" to="-276157217"/>
    <trip id="truck391" type="truck_truck" depart="19570.64" departLane="best" from="-9152018" to="180244652"/>
    <trip id="truck392" type="truck_truck" depart="19620.69" departLane="best" from="565255792#5" to="9151585#0"/>
    <trip id="truck393" type="truck_truck" depart="19670.74" departLane="best" from="-586413246#18" to="9151585#6"/>
    <trip id="truck395" type="truck_truck" depart="19770.85" departLane="best" from="-586413246#5" to="586413259#0"/>
    <trip id="truck396" type="truck_truck" depart="19820.90" departLane="best" departSpeed="max" from="-180244652" to="565245613"/>
    <trip id="truck400" type="truck_truck" depart="20021.11" departLane="best" departSpeed="max" from="1315084524" to="180244652"/>